* NGSPICE file created from sky130_ak_ip__comparator.ext - technology: sky130A

.subckt sky130_fd_pr__pfet_g5v0d10v5_4V4BDM a_n29_n50# a_n187_n50# w_n387_n347# a_29_n147#
+ a_n129_n147# a_129_n50#
X0 a_129_n50# a_29_n147# a_n29_n50# w_n387_n347# sky130_fd_pr__pfet_g5v0d10v5 ad=0.145 pd=1.58 as=0.0725 ps=0.79 w=0.5 l=0.5
X1 a_n29_n50# a_n129_n147# a_n187_n50# w_n387_n347# sky130_fd_pr__pfet_g5v0d10v5 ad=0.0725 pd=0.79 as=0.145 ps=1.58 w=0.5 l=0.5
.ends

.subckt sky130_fd_pr__pfet_g5v0d10v5_8T5BGA a_n187_n136# a_129_n136# w_n387_n362#
+ a_29_n162# a_n129_n162# a_n29_n136#
X0 a_n29_n136# a_n129_n162# a_n187_n136# w_n387_n362# sky130_fd_pr__pfet_g5v0d10v5 ad=0.145 pd=1.29 as=0.29 ps=2.58 w=1 l=0.5
X1 a_129_n136# a_29_n162# a_n29_n136# w_n387_n362# sky130_fd_pr__pfet_g5v0d10v5 ad=0.29 pd=2.58 as=0.145 ps=1.29 w=1 l=0.5
.ends

.subckt sky130_fd_pr__nfet_g5v0d10v5_C5EREZ a_50_n100# a_n242_n322# a_n108_n100# a_n50_n188#
X0 a_50_n100# a_n50_n188# a_n108_n100# a_n242_n322# sky130_fd_pr__nfet_g5v0d10v5 ad=0.29 pd=2.58 as=0.29 ps=2.58 w=1 l=0.5
.ends

.subckt sky130_fd_pr__nfet_g5v0d10v5_S48KL6 a_n321_n322# a_n29_n100# a_n187_n100#
+ a_129_n100# a_29_n188# a_n129_n188#
X0 a_129_n100# a_29_n188# a_n29_n100# a_n321_n322# sky130_fd_pr__nfet_g5v0d10v5 ad=0.29 pd=2.58 as=0.145 ps=1.29 w=1 l=0.5
X1 a_n29_n100# a_n129_n188# a_n187_n100# a_n321_n322# sky130_fd_pr__nfet_g5v0d10v5 ad=0.145 pd=1.29 as=0.29 ps=2.58 w=1 l=0.5
.ends

.subckt level_shifter_up VDD_HV x_lv x_hv xb_hv VDD_LV VSUBS m1_380_440# GND_HV
Xsky130_fd_pr__pfet_g5v0d10v5_4V4BDM_0 VDD_HV xb_hv VDD_HV xb_hv x_hv x_hv sky130_fd_pr__pfet_g5v0d10v5_4V4BDM
Xsky130_fd_pr__pfet_g5v0d10v5_8T5BGA_0 m1_380_440# m1_380_440# VDD_LV x_lv x_lv VDD_LV
+ sky130_fd_pr__pfet_g5v0d10v5_8T5BGA
Xsky130_fd_pr__nfet_g5v0d10v5_C5EREZ_0 m1_380_440# VSUBS VSUBS x_lv sky130_fd_pr__nfet_g5v0d10v5_C5EREZ
Xsky130_fd_pr__nfet_g5v0d10v5_S48KL6_0 GND_HV GND_HV x_hv xb_hv x_lv m1_380_440# sky130_fd_pr__nfet_g5v0d10v5_S48KL6
.ends

.subckt sky130_fd_pr__pfet_g5v0d10v5_RUG6CB a_n400_n497# a_400_n400# w_n658_n697#
+ a_n458_n400#
X0 a_400_n400# a_n400_n497# a_n458_n400# w_n658_n697# sky130_fd_pr__pfet_g5v0d10v5 ad=1.16 pd=8.58 as=1.16 ps=8.58 w=4 l=4
.ends

.subckt sky130_fd_pr__nfet_g5v0d10v5_M7X63G a_150_n800# a_n208_n800# a_n150_n888#
+ a_n342_n1022#
X0 a_150_n800# a_n150_n888# a_n208_n800# a_n342_n1022# sky130_fd_pr__nfet_g5v0d10v5 ad=2.32 pd=16.58 as=2.32 ps=16.58 w=8 l=1.5
.ends

.subckt sky130_fd_pr__pfet_g5v0d10v5_REE66T a_n487_n497# a_487_n400# a_n29_n400# a_545_n497#
+ a_n803_n400# a_29_n497# a_n287_n400# a_n1061_n400# a_n745_n497# a_803_n497# a_745_n400#
+ a_n229_n497# a_287_n497# a_n1003_n497# a_229_n400# a_n545_n400# w_n1261_n697# a_1003_n400#
X0 a_n545_n400# a_n745_n497# a_n803_n400# w_n1261_n697# sky130_fd_pr__pfet_g5v0d10v5 ad=0.58 pd=4.29 as=0.58 ps=4.29 w=4 l=1
X1 a_n803_n400# a_n1003_n497# a_n1061_n400# w_n1261_n697# sky130_fd_pr__pfet_g5v0d10v5 ad=0.58 pd=4.29 as=1.16 ps=8.58 w=4 l=1
X2 a_n287_n400# a_n487_n497# a_n545_n400# w_n1261_n697# sky130_fd_pr__pfet_g5v0d10v5 ad=0.58 pd=4.29 as=0.58 ps=4.29 w=4 l=1
X3 a_1003_n400# a_803_n497# a_745_n400# w_n1261_n697# sky130_fd_pr__pfet_g5v0d10v5 ad=1.16 pd=8.58 as=0.58 ps=4.29 w=4 l=1
X4 a_487_n400# a_287_n497# a_229_n400# w_n1261_n697# sky130_fd_pr__pfet_g5v0d10v5 ad=0.58 pd=4.29 as=0.58 ps=4.29 w=4 l=1
X5 a_745_n400# a_545_n497# a_487_n400# w_n1261_n697# sky130_fd_pr__pfet_g5v0d10v5 ad=0.58 pd=4.29 as=0.58 ps=4.29 w=4 l=1
X6 a_n29_n400# a_n229_n497# a_n287_n400# w_n1261_n697# sky130_fd_pr__pfet_g5v0d10v5 ad=0.58 pd=4.29 as=0.58 ps=4.29 w=4 l=1
X7 a_229_n400# a_29_n497# a_n29_n400# w_n1261_n697# sky130_fd_pr__pfet_g5v0d10v5 ad=0.58 pd=4.29 as=0.58 ps=4.29 w=4 l=1
.ends

.subckt sky130_fd_pr__nfet_g5v0d10v5_LUSSBJ a_108_n288# a_50_n200# a_n208_n288# a_n400_n422#
+ a_n108_n200# a_n266_n200# a_n50_n288# a_208_n200#
X0 a_n108_n200# a_n208_n288# a_n266_n200# a_n400_n422# sky130_fd_pr__nfet_g5v0d10v5 ad=0.29 pd=2.29 as=0.58 ps=4.58 w=2 l=0.5
X1 a_208_n200# a_108_n288# a_50_n200# a_n400_n422# sky130_fd_pr__nfet_g5v0d10v5 ad=0.58 pd=4.58 as=0.29 ps=2.29 w=2 l=0.5
X2 a_50_n200# a_n50_n288# a_n108_n200# a_n400_n422# sky130_fd_pr__nfet_g5v0d10v5 ad=0.29 pd=2.29 as=0.29 ps=2.29 w=2 l=0.5
.ends

.subckt sky130_fd_pr__res_high_po_2p85_EP2UD7 a_n2283_n3624# a_381_n3624# a_n2437_n3778#
+ a_n285_3192# a_1047_3192# a_n951_3192# a_1713_3192# a_n1617_n3624# a_381_3192# a_n285_n3624#
+ a_n951_n3624# a_1047_n3624# a_n2283_3192# a_1713_n3624# a_n1617_3192#
X0 a_n285_3192# a_n285_n3624# a_n2437_n3778# sky130_fd_pr__res_high_po_2p85 l=32.08
X1 a_1047_3192# a_1047_n3624# a_n2437_n3778# sky130_fd_pr__res_high_po_2p85 l=32.08
X2 a_n951_3192# a_n951_n3624# a_n2437_n3778# sky130_fd_pr__res_high_po_2p85 l=32.08
X3 a_1713_3192# a_1713_n3624# a_n2437_n3778# sky130_fd_pr__res_high_po_2p85 l=32.08
X4 a_n2283_3192# a_n2283_n3624# a_n2437_n3778# sky130_fd_pr__res_high_po_2p85 l=32.08
X5 a_n1617_3192# a_n1617_n3624# a_n2437_n3778# sky130_fd_pr__res_high_po_2p85 l=32.08
X6 a_381_3192# a_381_n3624# a_n2437_n3778# sky130_fd_pr__res_high_po_2p85 l=32.08
.ends

.subckt sky130_fd_pr__nfet_g5v0d10v5_TAUUP3 a_n345_n431# a_129_n431# a_29_n457# a_n129_n457#
+ a_287_n431# a_187_n457# a_n287_n457# a_n29_n431# a_n479_n591# a_n187_n431#
X0 a_n187_n431# a_n287_n457# a_n345_n431# a_n479_n591# sky130_fd_pr__nfet_g5v0d10v5 ad=0.58 pd=4.29 as=1.16 ps=8.58 w=4 l=0.5
X1 a_287_n431# a_187_n457# a_129_n431# a_n479_n591# sky130_fd_pr__nfet_g5v0d10v5 ad=1.16 pd=8.58 as=0.58 ps=4.29 w=4 l=0.5
X2 a_129_n431# a_29_n457# a_n29_n431# a_n479_n591# sky130_fd_pr__nfet_g5v0d10v5 ad=0.58 pd=4.29 as=0.58 ps=4.29 w=4 l=0.5
X3 a_n29_n431# a_n129_n457# a_n187_n431# a_n479_n591# sky130_fd_pr__nfet_g5v0d10v5 ad=0.58 pd=4.29 as=0.58 ps=4.29 w=4 l=0.5
.ends

.subckt sky130_fd_pr__pfet_g5v0d10v5_RJSTGP a_29_n297# a_n887_n200# a_n29_n200# a_n829_n297#
+ w_n1087_n497# a_829_n200#
X0 a_n29_n200# a_n829_n297# a_n887_n200# w_n1087_n497# sky130_fd_pr__pfet_g5v0d10v5 ad=0.29 pd=2.29 as=0.58 ps=4.58 w=2 l=4
X1 a_829_n200# a_29_n297# a_n29_n200# w_n1087_n497# sky130_fd_pr__pfet_g5v0d10v5 ad=0.58 pd=4.58 as=0.29 ps=2.29 w=2 l=4
.ends

.subckt sky130_fd_pr__pfet_g5v0d10v5_8JQF8T a_n100_n1015# a_n158_118# a_n100_21# w_n358_n1215#
+ a_100_n918# a_n158_n918# a_100_118#
X0 a_100_118# a_n100_21# a_n158_118# w_n358_n1215# sky130_fd_pr__pfet_g5v0d10v5 ad=1.16 pd=8.58 as=1.16 ps=8.58 w=4 l=1
X1 a_100_n918# a_n100_n1015# a_n158_n918# w_n358_n1215# sky130_fd_pr__pfet_g5v0d10v5 ad=1.16 pd=8.58 as=1.16 ps=8.58 w=4 l=1
.ends

.subckt sky130_fd_pr__nfet_g5v0d10v5_MMHSE7 a_100_n400# a_n292_n622# a_n158_n400#
+ a_n100_n488#
X0 a_100_n400# a_n100_n488# a_n158_n400# a_n292_n622# sky130_fd_pr__nfet_g5v0d10v5 ad=1.16 pd=8.58 as=1.16 ps=8.58 w=4 l=1
.ends

.subckt sky130_fd_pr__pfet_g5v0d10v5_PNRDLC a_n150_n897# a_150_n800# w_n408_n1097#
+ a_n208_n800#
X0 a_150_n800# a_n150_n897# a_n208_n800# w_n408_n1097# sky130_fd_pr__pfet_g5v0d10v5 ad=2.32 pd=16.58 as=2.32 ps=16.58 w=8 l=1.5
.ends

.subckt sky130_fd_pr__nfet_g5v0d10v5_46Z5PG a_129_n200# a_29_n288# a_n129_n288# a_n321_n422#
+ a_n29_n200# a_n187_n200#
X0 a_129_n200# a_29_n288# a_n29_n200# a_n321_n422# sky130_fd_pr__nfet_g5v0d10v5 ad=0.58 pd=4.58 as=0.29 ps=2.29 w=2 l=0.5
X1 a_n29_n200# a_n129_n288# a_n187_n200# a_n321_n422# sky130_fd_pr__nfet_g5v0d10v5 ad=0.29 pd=2.29 as=0.58 ps=4.58 w=2 l=0.5
.ends

.subckt sky130_fd_pr__nfet_g5v0d10v5_RRA4TL a_n258_n50# a_n200_n138# a_200_n50# a_n392_n272#
X0 a_200_n50# a_n200_n138# a_n258_n50# a_n392_n272# sky130_fd_pr__nfet_g5v0d10v5 ad=0.145 pd=1.58 as=0.145 ps=1.58 w=0.5 l=2
.ends

.subckt sky130_fd_pr__pfet_g5v0d10v5_CRL9SD a_n150_n897# a_150_n800# w_n408_n1097#
+ a_n208_n800#
X0 a_150_n800# a_n150_n897# a_n208_n800# w_n408_n1097# sky130_fd_pr__pfet_g5v0d10v5 ad=2.32 pd=16.58 as=2.32 ps=16.58 w=8 l=1.5
.ends

.subckt sky130_fd_pr__pfet_01v8_YTEHH6 w_n425_n619# a_n29_n400# a_29_n497# a_n287_n400#
+ a_n229_n497# a_229_n400#
X0 a_n29_n400# a_n229_n497# a_n287_n400# w_n425_n619# sky130_fd_pr__pfet_01v8 ad=0.58 pd=4.29 as=1.16 ps=8.58 w=4 l=1
X1 a_229_n400# a_29_n497# a_n29_n400# w_n425_n619# sky130_fd_pr__pfet_01v8 ad=1.16 pd=8.58 as=0.58 ps=4.29 w=4 l=1
.ends

.subckt sky130_fd_pr__nfet_g5v0d10v5_8TUSME a_n345_n200# a_129_n200# a_287_n200# a_n479_n422#
+ a_29_n288# a_n129_n288# a_187_n288# a_n287_n288# a_n29_n200# a_n187_n200#
X0 a_n187_n200# a_n287_n288# a_n345_n200# a_n479_n422# sky130_fd_pr__nfet_g5v0d10v5 ad=0.29 pd=2.29 as=0.58 ps=4.58 w=2 l=0.5
X1 a_287_n200# a_187_n288# a_129_n200# a_n479_n422# sky130_fd_pr__nfet_g5v0d10v5 ad=0.58 pd=4.58 as=0.29 ps=2.29 w=2 l=0.5
X2 a_129_n200# a_29_n288# a_n29_n200# a_n479_n422# sky130_fd_pr__nfet_g5v0d10v5 ad=0.29 pd=2.29 as=0.29 ps=2.29 w=2 l=0.5
X3 a_n29_n200# a_n129_n288# a_n187_n200# a_n479_n422# sky130_fd_pr__nfet_g5v0d10v5 ad=0.29 pd=2.29 as=0.29 ps=2.29 w=2 l=0.5
.ends

.subckt sky130_fd_pr__nfet_g5v0d10v5_T8W2FW a_150_n800# a_n208_n800# a_n150_n888#
+ a_n342_n1022#
X0 a_150_n800# a_n150_n888# a_n208_n800# a_n342_n1022# sky130_fd_pr__nfet_g5v0d10v5 ad=2.32 pd=16.58 as=2.32 ps=16.58 w=8 l=1.5
.ends

.subckt sky130_fd_pr__nfet_g5v0d10v5_AUB4P8 a_150_n800# a_n208_n800# a_n150_n888#
+ a_n342_n1022#
X0 a_150_n800# a_n150_n888# a_n208_n800# a_n342_n1022# sky130_fd_pr__nfet_g5v0d10v5 ad=2.32 pd=16.58 as=2.32 ps=16.58 w=8 l=1.5
.ends

.subckt sky130_fd_pr__nfet_01v8_HWT53N a_n73_n100# a_n33_n188# a_15_n100# a_n175_n274#
X0 a_15_n100# a_n33_n188# a_n73_n100# a_n175_n274# sky130_fd_pr__nfet_01v8 ad=0.29 pd=2.58 as=0.29 ps=2.58 w=1 l=0.15
.ends

.subckt sky130_fd_pr__pfet_01v8_EPRAC4 a_15_n200# w_n211_n419# a_n33_n297# a_n73_n200#
X0 a_15_n200# a_n33_n297# a_n73_n200# w_n211_n419# sky130_fd_pr__pfet_01v8 ad=0.58 pd=4.58 as=0.58 ps=4.58 w=2 l=0.15
.ends

.subckt sky130_fd_pr__nfet_g5v0d10v5_LHNF5N a_n345_n431# a_129_n431# a_29_n457# a_n129_n457#
+ a_287_n431# a_187_n457# a_n287_n457# a_n29_n431# a_n479_n591# a_n187_n431#
X0 a_n187_n431# a_n287_n457# a_n345_n431# a_n479_n591# sky130_fd_pr__nfet_g5v0d10v5 ad=0.58 pd=4.29 as=1.16 ps=8.58 w=4 l=0.5
X1 a_287_n431# a_187_n457# a_129_n431# a_n479_n591# sky130_fd_pr__nfet_g5v0d10v5 ad=1.16 pd=8.58 as=0.58 ps=4.29 w=4 l=0.5
X2 a_129_n431# a_29_n457# a_n29_n431# a_n479_n591# sky130_fd_pr__nfet_g5v0d10v5 ad=0.58 pd=4.29 as=0.58 ps=4.29 w=4 l=0.5
X3 a_n29_n431# a_n129_n457# a_n187_n431# a_n479_n591# sky130_fd_pr__nfet_g5v0d10v5 ad=0.58 pd=4.29 as=0.58 ps=4.29 w=4 l=0.5
.ends

.subckt sky130_fd_pr__pfet_g5v0d10v5_Q8UPKT a_n829_n615# w_n1087_n815# a_29_n615#
+ a_29_21# a_n887_n518# a_829_118# a_n29_n518# a_829_n518# a_n29_118# a_n887_118#
+ a_n829_21#
X0 a_829_n518# a_29_n615# a_n29_n518# w_n1087_n815# sky130_fd_pr__pfet_g5v0d10v5 ad=0.58 pd=4.58 as=0.29 ps=2.29 w=2 l=4
X1 a_829_118# a_29_21# a_n29_118# w_n1087_n815# sky130_fd_pr__pfet_g5v0d10v5 ad=0.58 pd=4.58 as=0.29 ps=2.29 w=2 l=4
X2 a_n29_118# a_n829_21# a_n887_118# w_n1087_n815# sky130_fd_pr__pfet_g5v0d10v5 ad=0.29 pd=2.29 as=0.58 ps=4.58 w=2 l=4
X3 a_n29_n518# a_n829_n615# a_n887_n518# w_n1087_n815# sky130_fd_pr__pfet_g5v0d10v5 ad=0.29 pd=2.29 as=0.58 ps=4.58 w=2 l=4
.ends

.subckt sky130_fd_pr__nfet_g5v0d10v5_MRHAE7 a_100_n400# a_n292_n622# a_n158_n400#
+ a_n100_n488#
X0 a_100_n400# a_n100_n488# a_n158_n400# a_n292_n622# sky130_fd_pr__nfet_g5v0d10v5 ad=1.16 pd=8.58 as=1.16 ps=8.58 w=4 l=1
.ends

.subckt sky130_fd_pr__pfet_g5v0d10v5_X332GA a_29_n297# a_n129_n297# a_129_n200# a_n29_n200#
+ w_n387_n497# a_n187_n200#
X0 a_129_n200# a_29_n297# a_n29_n200# w_n387_n497# sky130_fd_pr__pfet_g5v0d10v5 ad=0.58 pd=4.58 as=0.29 ps=2.29 w=2 l=0.5
X1 a_n29_n200# a_n129_n297# a_n187_n200# w_n387_n497# sky130_fd_pr__pfet_g5v0d10v5 ad=0.29 pd=2.29 as=0.58 ps=4.58 w=2 l=0.5
.ends

.subckt sky130_fd_pr__nfet_g5v0d10v5_4RA4DJ a_n603_n288# a_n345_n200# a_129_n200#
+ a_n503_n200# a_287_n200# a_n661_n200# a_445_n200# a_29_n288# a_n129_n288# a_603_n200#
+ a_187_n288# a_n795_n422# a_n287_n288# a_345_n288# a_n29_n200# a_n187_n200# a_n445_n288#
+ a_503_n288#
X0 a_n187_n200# a_n287_n288# a_n345_n200# a_n795_n422# sky130_fd_pr__nfet_g5v0d10v5 ad=0.29 pd=2.29 as=0.29 ps=2.29 w=2 l=0.5
X1 a_287_n200# a_187_n288# a_129_n200# a_n795_n422# sky130_fd_pr__nfet_g5v0d10v5 ad=0.29 pd=2.29 as=0.29 ps=2.29 w=2 l=0.5
X2 a_n345_n200# a_n445_n288# a_n503_n200# a_n795_n422# sky130_fd_pr__nfet_g5v0d10v5 ad=0.29 pd=2.29 as=0.29 ps=2.29 w=2 l=0.5
X3 a_129_n200# a_29_n288# a_n29_n200# a_n795_n422# sky130_fd_pr__nfet_g5v0d10v5 ad=0.29 pd=2.29 as=0.29 ps=2.29 w=2 l=0.5
X4 a_445_n200# a_345_n288# a_287_n200# a_n795_n422# sky130_fd_pr__nfet_g5v0d10v5 ad=0.29 pd=2.29 as=0.29 ps=2.29 w=2 l=0.5
X5 a_n503_n200# a_n603_n288# a_n661_n200# a_n795_n422# sky130_fd_pr__nfet_g5v0d10v5 ad=0.29 pd=2.29 as=0.58 ps=4.58 w=2 l=0.5
X6 a_n29_n200# a_n129_n288# a_n187_n200# a_n795_n422# sky130_fd_pr__nfet_g5v0d10v5 ad=0.29 pd=2.29 as=0.29 ps=2.29 w=2 l=0.5
X7 a_603_n200# a_503_n288# a_445_n200# a_n795_n422# sky130_fd_pr__nfet_g5v0d10v5 ad=0.58 pd=4.58 as=0.29 ps=2.29 w=2 l=0.5
.ends

.subckt sky130_fd_pr__pfet_g5v0d10v5_GHE6BF a_n158_n518# a_n158_118# a_n100_21# a_n100_n615#
+ w_n358_n815# a_100_118# a_100_n518#
X0 a_100_118# a_n100_21# a_n158_118# w_n358_n815# sky130_fd_pr__pfet_g5v0d10v5 ad=0.58 pd=4.58 as=0.58 ps=4.58 w=2 l=1
X1 a_100_n518# a_n100_n615# a_n158_n518# w_n358_n815# sky130_fd_pr__pfet_g5v0d10v5 ad=0.58 pd=4.58 as=0.58 ps=4.58 w=2 l=1
.ends

.subckt sky130_fd_pr__nfet_g5v0d10v5_WGHV7X a_400_n509# a_n458_109# a_n400_21# a_n458_n509#
+ a_n592_n731# a_400_109# a_n400_n597#
X0 a_400_n509# a_n400_n597# a_n458_n509# a_n592_n731# sky130_fd_pr__nfet_g5v0d10v5 ad=0.58 pd=4.58 as=0.58 ps=4.58 w=2 l=4
X1 a_400_109# a_n400_21# a_n458_109# a_n592_n731# sky130_fd_pr__nfet_g5v0d10v5 ad=0.58 pd=4.58 as=0.58 ps=4.58 w=2 l=4
.ends

.subckt sky130_fd_pr__nfet_g5v0d10v5_LURNA9 a_n287_n200# a_n1061_n200# a_745_n200#
+ a_n487_n288# a_545_n288# a_229_n200# a_n1195_n422# a_n545_n200# a_29_n288# a_n745_n288#
+ a_1003_n200# a_803_n288# a_487_n200# a_n29_n200# a_n229_n288# a_287_n288# a_n1003_n288#
+ a_n803_n200#
X0 a_487_n200# a_287_n288# a_229_n200# a_n1195_n422# sky130_fd_pr__nfet_g5v0d10v5 ad=0.29 pd=2.29 as=0.29 ps=2.29 w=2 l=1
X1 a_n29_n200# a_n229_n288# a_n287_n200# a_n1195_n422# sky130_fd_pr__nfet_g5v0d10v5 ad=0.29 pd=2.29 as=0.29 ps=2.29 w=2 l=1
X2 a_229_n200# a_29_n288# a_n29_n200# a_n1195_n422# sky130_fd_pr__nfet_g5v0d10v5 ad=0.29 pd=2.29 as=0.29 ps=2.29 w=2 l=1
X3 a_n545_n200# a_n745_n288# a_n803_n200# a_n1195_n422# sky130_fd_pr__nfet_g5v0d10v5 ad=0.29 pd=2.29 as=0.29 ps=2.29 w=2 l=1
X4 a_n803_n200# a_n1003_n288# a_n1061_n200# a_n1195_n422# sky130_fd_pr__nfet_g5v0d10v5 ad=0.29 pd=2.29 as=0.58 ps=4.58 w=2 l=1
X5 a_n287_n200# a_n487_n288# a_n545_n200# a_n1195_n422# sky130_fd_pr__nfet_g5v0d10v5 ad=0.29 pd=2.29 as=0.29 ps=2.29 w=2 l=1
X6 a_745_n200# a_545_n288# a_487_n200# a_n1195_n422# sky130_fd_pr__nfet_g5v0d10v5 ad=0.29 pd=2.29 as=0.29 ps=2.29 w=2 l=1
X7 a_1003_n200# a_803_n288# a_745_n200# a_n1195_n422# sky130_fd_pr__nfet_g5v0d10v5 ad=0.58 pd=4.58 as=0.29 ps=2.29 w=2 l=1
.ends

.subckt sky130_fd_pr__nfet_g5v0d10v5_RM8L2M a_n258_n50# a_n200_n138# a_200_n50# a_n392_n272#
X0 a_200_n50# a_n200_n138# a_n258_n50# a_n392_n272# sky130_fd_pr__nfet_g5v0d10v5 ad=0.145 pd=1.58 as=0.145 ps=1.58 w=0.5 l=2
.ends

.subckt sky130_fd_pr__pfet_g5v0d10v5_N8ANR9 a_n345_n364# a_129_n364# a_287_n364# w_n545_n662#
+ a_29_n461# a_n129_n461# a_187_n461# a_n287_n461# a_n29_n364# a_n187_n364#
X0 a_n187_n364# a_n287_n461# a_n345_n364# w_n545_n662# sky130_fd_pr__pfet_g5v0d10v5 ad=0.58 pd=4.29 as=1.16 ps=8.58 w=4 l=0.5
X1 a_287_n364# a_187_n461# a_129_n364# w_n545_n662# sky130_fd_pr__pfet_g5v0d10v5 ad=1.16 pd=8.58 as=0.58 ps=4.29 w=4 l=0.5
X2 a_129_n364# a_29_n461# a_n29_n364# w_n545_n662# sky130_fd_pr__pfet_g5v0d10v5 ad=0.58 pd=4.29 as=0.58 ps=4.29 w=4 l=0.5
X3 a_n29_n364# a_n129_n461# a_n187_n364# w_n545_n662# sky130_fd_pr__pfet_g5v0d10v5 ad=0.58 pd=4.29 as=0.58 ps=4.29 w=4 l=0.5
.ends

.subckt sky130_fd_pr__pfet_g5v0d10v5_6UJQA2 a_n187_n436# a_n345_n436# a_129_n436#
+ a_287_n436# w_n545_n662# a_29_n462# a_n129_n462# a_187_n462# a_n287_n462# a_n29_n436#
X0 a_129_n436# a_29_n462# a_n29_n436# w_n545_n662# sky130_fd_pr__pfet_g5v0d10v5 ad=0.58 pd=4.29 as=0.58 ps=4.29 w=4 l=0.5
X1 a_n29_n436# a_n129_n462# a_n187_n436# w_n545_n662# sky130_fd_pr__pfet_g5v0d10v5 ad=0.58 pd=4.29 as=0.58 ps=4.29 w=4 l=0.5
X2 a_n187_n436# a_n287_n462# a_n345_n436# w_n545_n662# sky130_fd_pr__pfet_g5v0d10v5 ad=0.58 pd=4.29 as=1.16 ps=8.58 w=4 l=0.5
X3 a_287_n436# a_187_n462# a_129_n436# w_n545_n662# sky130_fd_pr__pfet_g5v0d10v5 ad=1.16 pd=8.58 as=0.58 ps=4.29 w=4 l=0.5
.ends

.subckt sky130_fd_pr__nfet_g5v0d10v5_CDNABP a_n100_n597# a_n100_21# a_100_109# a_100_n509#
+ a_n158_n509# a_n292_n731# a_n158_109#
X0 a_100_n509# a_n100_n597# a_n158_n509# a_n292_n731# sky130_fd_pr__nfet_g5v0d10v5 ad=0.58 pd=4.58 as=0.58 ps=4.58 w=2 l=1
X1 a_100_109# a_n100_21# a_n158_109# a_n292_n731# sky130_fd_pr__nfet_g5v0d10v5 ad=0.58 pd=4.58 as=0.58 ps=4.58 w=2 l=1
.ends

.subckt sky130_fd_pr__pfet_g5v0d10v5_CS979Q a_n400_n615# a_400_118# w_n658_n815# a_n400_21#
+ a_400_n518# a_n458_118# a_n458_n518#
X0 a_400_118# a_n400_21# a_n458_118# w_n658_n815# sky130_fd_pr__pfet_g5v0d10v5 ad=0.58 pd=4.58 as=0.58 ps=4.58 w=2 l=4
X1 a_400_n518# a_n400_n615# a_n458_n518# w_n658_n815# sky130_fd_pr__pfet_g5v0d10v5 ad=0.58 pd=4.58 as=0.58 ps=4.58 w=2 l=4
.ends

.subckt sky130_fd_pr__pfet_g5v0d10v5_2CKAKF a_n819_n200# a_n345_n200# a_n977_n200#
+ a_n1135_n200# a_29_n297# a_n129_n297# a_187_n297# a_129_n200# a_n503_n200# a_n1293_n200#
+ a_n287_n297# a_819_n297# a_345_n297# a_n1077_n297# a_287_n200# a_n661_n200# a_n919_n297#
+ a_977_n297# a_n445_n297# a_919_n200# a_503_n297# a_n1235_n297# a_445_n200# a_1135_n297#
+ a_n603_n297# a_1077_n200# a_661_n297# a_603_n200# w_n1493_n497# a_n761_n297# a_1235_n200#
+ a_761_n200# a_n29_n200# a_n187_n200#
X0 a_n819_n200# a_n919_n297# a_n977_n200# w_n1493_n497# sky130_fd_pr__pfet_g5v0d10v5 ad=0.29 pd=2.29 as=0.29 ps=2.29 w=2 l=0.5
X1 a_n661_n200# a_n761_n297# a_n819_n200# w_n1493_n497# sky130_fd_pr__pfet_g5v0d10v5 ad=0.29 pd=2.29 as=0.29 ps=2.29 w=2 l=0.5
X2 a_919_n200# a_819_n297# a_761_n200# w_n1493_n497# sky130_fd_pr__pfet_g5v0d10v5 ad=0.29 pd=2.29 as=0.29 ps=2.29 w=2 l=0.5
X3 a_n187_n200# a_n287_n297# a_n345_n200# w_n1493_n497# sky130_fd_pr__pfet_g5v0d10v5 ad=0.29 pd=2.29 as=0.29 ps=2.29 w=2 l=0.5
X4 a_761_n200# a_661_n297# a_603_n200# w_n1493_n497# sky130_fd_pr__pfet_g5v0d10v5 ad=0.29 pd=2.29 as=0.29 ps=2.29 w=2 l=0.5
X5 a_287_n200# a_187_n297# a_129_n200# w_n1493_n497# sky130_fd_pr__pfet_g5v0d10v5 ad=0.29 pd=2.29 as=0.29 ps=2.29 w=2 l=0.5
X6 a_n345_n200# a_n445_n297# a_n503_n200# w_n1493_n497# sky130_fd_pr__pfet_g5v0d10v5 ad=0.29 pd=2.29 as=0.29 ps=2.29 w=2 l=0.5
X7 a_129_n200# a_29_n297# a_n29_n200# w_n1493_n497# sky130_fd_pr__pfet_g5v0d10v5 ad=0.29 pd=2.29 as=0.29 ps=2.29 w=2 l=0.5
X8 a_445_n200# a_345_n297# a_287_n200# w_n1493_n497# sky130_fd_pr__pfet_g5v0d10v5 ad=0.29 pd=2.29 as=0.29 ps=2.29 w=2 l=0.5
X9 a_n977_n200# a_n1077_n297# a_n1135_n200# w_n1493_n497# sky130_fd_pr__pfet_g5v0d10v5 ad=0.29 pd=2.29 as=0.29 ps=2.29 w=2 l=0.5
X10 a_n503_n200# a_n603_n297# a_n661_n200# w_n1493_n497# sky130_fd_pr__pfet_g5v0d10v5 ad=0.29 pd=2.29 as=0.29 ps=2.29 w=2 l=0.5
X11 a_1077_n200# a_977_n297# a_919_n200# w_n1493_n497# sky130_fd_pr__pfet_g5v0d10v5 ad=0.29 pd=2.29 as=0.29 ps=2.29 w=2 l=0.5
X12 a_n29_n200# a_n129_n297# a_n187_n200# w_n1493_n497# sky130_fd_pr__pfet_g5v0d10v5 ad=0.29 pd=2.29 as=0.29 ps=2.29 w=2 l=0.5
X13 a_603_n200# a_503_n297# a_445_n200# w_n1493_n497# sky130_fd_pr__pfet_g5v0d10v5 ad=0.29 pd=2.29 as=0.29 ps=2.29 w=2 l=0.5
X14 a_n1135_n200# a_n1235_n297# a_n1293_n200# w_n1493_n497# sky130_fd_pr__pfet_g5v0d10v5 ad=0.29 pd=2.29 as=0.58 ps=4.58 w=2 l=0.5
X15 a_1235_n200# a_1135_n297# a_1077_n200# w_n1493_n497# sky130_fd_pr__pfet_g5v0d10v5 ad=0.58 pd=4.58 as=0.29 ps=2.29 w=2 l=0.5
.ends

.subckt sky130_fd_pr__nfet_g5v0d10v5_EEFBWQ a_400_n200# a_n592_n422# a_n458_n200#
+ a_n400_n288#
X0 a_400_n200# a_n400_n288# a_n458_n200# a_n592_n422# sky130_fd_pr__nfet_g5v0d10v5 ad=0.58 pd=4.58 as=0.58 ps=4.58 w=2 l=4
.ends

.subckt sky130_fd_pr__pfet_g5v0d10v5_9432CF a_n345_n200# a_29_n297# a_n129_n297# w_n703_n497#
+ a_187_n297# a_129_n200# a_n503_n200# a_n287_n297# a_345_n297# a_287_n200# a_n445_n297#
+ a_445_n200# a_n29_n200# a_n187_n200#
X0 a_n187_n200# a_n287_n297# a_n345_n200# w_n703_n497# sky130_fd_pr__pfet_g5v0d10v5 ad=0.29 pd=2.29 as=0.29 ps=2.29 w=2 l=0.5
X1 a_287_n200# a_187_n297# a_129_n200# w_n703_n497# sky130_fd_pr__pfet_g5v0d10v5 ad=0.29 pd=2.29 as=0.29 ps=2.29 w=2 l=0.5
X2 a_n345_n200# a_n445_n297# a_n503_n200# w_n703_n497# sky130_fd_pr__pfet_g5v0d10v5 ad=0.29 pd=2.29 as=0.58 ps=4.58 w=2 l=0.5
X3 a_129_n200# a_29_n297# a_n29_n200# w_n703_n497# sky130_fd_pr__pfet_g5v0d10v5 ad=0.29 pd=2.29 as=0.29 ps=2.29 w=2 l=0.5
X4 a_445_n200# a_345_n297# a_287_n200# w_n703_n497# sky130_fd_pr__pfet_g5v0d10v5 ad=0.58 pd=4.58 as=0.29 ps=2.29 w=2 l=0.5
X5 a_n29_n200# a_n129_n297# a_n187_n200# w_n703_n497# sky130_fd_pr__pfet_g5v0d10v5 ad=0.29 pd=2.29 as=0.29 ps=2.29 w=2 l=0.5
.ends

.subckt sky130_fd_pr__pfet_g5v0d10v5_2432J2 a_n345_n200# a_29_n297# a_n129_n297# a_187_n297#
+ a_129_n200# a_n287_n297# a_287_n200# a_n29_n200# a_n187_n200# w_n545_n497#
X0 a_n187_n200# a_n287_n297# a_n345_n200# w_n545_n497# sky130_fd_pr__pfet_g5v0d10v5 ad=0.29 pd=2.29 as=0.58 ps=4.58 w=2 l=0.5
X1 a_287_n200# a_187_n297# a_129_n200# w_n545_n497# sky130_fd_pr__pfet_g5v0d10v5 ad=0.58 pd=4.58 as=0.29 ps=2.29 w=2 l=0.5
X2 a_129_n200# a_29_n297# a_n29_n200# w_n545_n497# sky130_fd_pr__pfet_g5v0d10v5 ad=0.29 pd=2.29 as=0.29 ps=2.29 w=2 l=0.5
X3 a_n29_n200# a_n129_n297# a_n187_n200# w_n545_n497# sky130_fd_pr__pfet_g5v0d10v5 ad=0.29 pd=2.29 as=0.29 ps=2.29 w=2 l=0.5
.ends

.subckt sky130_ak_ip__comparator Vinp Vinm AVDD AGND en hyst[1] hyst[0] trim[5] trim[4]
+ trim[3] trim[2] trim[1] trim[0] Vout DVDD ibias DGND
Xlevel_shifter_up_3 AVDD en en_hv enb_hv DVDD DGND m1_36128_n32592# AGND level_shifter_up
Xsky130_fd_pr__pfet_g5v0d10v5_RUG6CB_0 m1_25710_11400# AVDD AVDD m1_25710_11400# sky130_fd_pr__pfet_g5v0d10v5_RUG6CB
Xsky130_fd_pr__nfet_g5v0d10v5_M7X63G_82 Vxm m1_2500_6140# Vinm AGND sky130_fd_pr__nfet_g5v0d10v5_M7X63G
Xsky130_fd_pr__nfet_g5v0d10v5_M7X63G_60 Vxm m1_2500_5340# Vinp AGND sky130_fd_pr__nfet_g5v0d10v5_M7X63G
Xsky130_fd_pr__pfet_g5v0d10v5_REE66T_1 m1_36250_n26840# m1_2500_n30560# m1_2500_n30560#
+ m1_36250_n26840# m1_31820_n13600# m1_36250_n26840# m1_31820_n13600# m1_2500_n30560#
+ m1_36250_n26840# m1_36250_n26840# m1_31820_n13600# m1_36250_n26840# m1_36250_n26840#
+ m1_36250_n26840# m1_31820_n13600# m1_2500_n30560# AVDD m1_2500_n30560# sky130_fd_pr__pfet_g5v0d10v5_REE66T
Xlevel_shifter_up_4 AVDD trim[3] level_shifter_up_4/x_hv trim3b_hv DVDD DGND m1_35128_n32592#
+ AGND level_shifter_up
Xsky130_fd_pr__nfet_g5v0d10v5_LUSSBJ_0 hyst0_hv AGND hyst0_hv AGND m1_33660_n1540#
+ AGND hyst0_hv m1_33660_n1540# sky130_fd_pr__nfet_g5v0d10v5_LUSSBJ
Xsky130_fd_pr__nfet_g5v0d10v5_M7X63G_61 Vxm m1_2500_6140# Vinm AGND sky130_fd_pr__nfet_g5v0d10v5_M7X63G
Xsky130_fd_pr__nfet_g5v0d10v5_M7X63G_83 m1_420_6500# m1_2500_5340# m1_4100_9160# AGND
+ sky130_fd_pr__nfet_g5v0d10v5_M7X63G
Xsky130_fd_pr__nfet_g5v0d10v5_M7X63G_50 Vxm m1_2500_6140# Vinm AGND sky130_fd_pr__nfet_g5v0d10v5_M7X63G
Xsky130_fd_pr__res_high_po_2p85_EP2UD7_0 AGND m1_25040_4590# AGND m1_24380_11400#
+ m1_25710_11400# m1_23050_11400# AGND m1_23040_4590# m1_24380_11400# m1_23710_4590#
+ m1_23710_4590# m1_25040_4590# AGND AGND m1_23050_11400# sky130_fd_pr__res_high_po_2p85_EP2UD7
Xlevel_shifter_up_5 AVDD trim[4] level_shifter_up_5/x_hv trim4b_hv DVDD DGND m1_34128_n32592#
+ AGND level_shifter_up
Xsky130_fd_pr__nfet_g5v0d10v5_M7X63G_40 Vxm m1_2500_5340# Vinp AGND sky130_fd_pr__nfet_g5v0d10v5_M7X63G
Xsky130_fd_pr__nfet_g5v0d10v5_M7X63G_73 Vxm m1_2500_5340# Vinp AGND sky130_fd_pr__nfet_g5v0d10v5_M7X63G
Xsky130_fd_pr__nfet_g5v0d10v5_M7X63G_84 m1_420_6500# m1_2500_6140# m1_4100_8360# AGND
+ sky130_fd_pr__nfet_g5v0d10v5_M7X63G
Xsky130_fd_pr__nfet_g5v0d10v5_M7X63G_62 Vxm m1_2500_5340# Vinp AGND sky130_fd_pr__nfet_g5v0d10v5_M7X63G
Xsky130_fd_pr__nfet_g5v0d10v5_M7X63G_51 Vxm m1_2500_5340# Vinp AGND sky130_fd_pr__nfet_g5v0d10v5_M7X63G
Xsky130_fd_pr__res_high_po_2p85_EP2UD7_1 AGND m1_24360_n31900# AGND m1_23690_n25080#
+ m1_25020_n25080# m1_23690_n25080# AGND m1_23030_n31900# m1_25020_n25080# m1_24360_n31900#
+ m1_23030_n31900# res_p_bot AGND AGND m1_23030_n25080# sky130_fd_pr__res_high_po_2p85_EP2UD7
Xlevel_shifter_up_6 AVDD trim[0] level_shifter_up_6/x_hv level_shifter_up_6/xb_hv
+ DVDD DGND level_shifter_up_6/m1_380_440# AGND level_shifter_up
Xsky130_fd_pr__nfet_g5v0d10v5_M7X63G_74 Vxm m1_2500_5340# Vinp AGND sky130_fd_pr__nfet_g5v0d10v5_M7X63G
Xsky130_fd_pr__nfet_g5v0d10v5_M7X63G_85 m1_420_6500# m1_2500_6140# m1_4100_8360# AGND
+ sky130_fd_pr__nfet_g5v0d10v5_M7X63G
Xsky130_fd_pr__nfet_g5v0d10v5_M7X63G_63 Vxm m1_2500_6140# Vinm AGND sky130_fd_pr__nfet_g5v0d10v5_M7X63G
Xsky130_fd_pr__nfet_g5v0d10v5_M7X63G_41 Vxm m1_2500_6140# Vinm AGND sky130_fd_pr__nfet_g5v0d10v5_M7X63G
Xsky130_fd_pr__nfet_g5v0d10v5_M7X63G_30 Vxm m1_2500_6140# Vinm AGND sky130_fd_pr__nfet_g5v0d10v5_M7X63G
Xsky130_fd_pr__nfet_g5v0d10v5_M7X63G_52 Vxm m1_2500_6140# Vinm AGND sky130_fd_pr__nfet_g5v0d10v5_M7X63G
Xlevel_shifter_up_7 AVDD trim[2] level_shifter_up_7/x_hv level_shifter_up_7/xb_hv
+ DVDD DGND level_shifter_up_7/m1_380_440# AGND level_shifter_up
Xsky130_fd_pr__nfet_g5v0d10v5_M7X63G_53 Vxm m1_2500_5340# Vinp AGND sky130_fd_pr__nfet_g5v0d10v5_M7X63G
Xsky130_fd_pr__nfet_g5v0d10v5_M7X63G_31 Vxm m1_2500_5340# Vinp AGND sky130_fd_pr__nfet_g5v0d10v5_M7X63G
Xsky130_fd_pr__nfet_g5v0d10v5_M7X63G_75 Vxm m1_2500_6140# Vinm AGND sky130_fd_pr__nfet_g5v0d10v5_M7X63G
Xsky130_fd_pr__nfet_g5v0d10v5_M7X63G_42 Vxm m1_2500_5340# Vinp AGND sky130_fd_pr__nfet_g5v0d10v5_M7X63G
Xsky130_fd_pr__nfet_g5v0d10v5_M7X63G_20 m1_420_6500# m1_2500_6140# m1_4100_8360# AGND
+ sky130_fd_pr__nfet_g5v0d10v5_M7X63G
Xsky130_fd_pr__nfet_g5v0d10v5_M7X63G_86 m1_420_6500# m1_2500_5340# m1_4100_9160# AGND
+ sky130_fd_pr__nfet_g5v0d10v5_M7X63G
Xlevel_shifter_up_8 AVDD trim[1] level_shifter_up_8/x_hv level_shifter_up_8/xb_hv
+ DVDD DGND level_shifter_up_8/m1_380_440# AGND level_shifter_up
Xsky130_fd_pr__nfet_g5v0d10v5_M7X63G_32 Vxm m1_2500_5340# Vinp AGND sky130_fd_pr__nfet_g5v0d10v5_M7X63G
Xsky130_fd_pr__nfet_g5v0d10v5_M7X63G_76 Vxm m1_2500_6140# Vinm AGND sky130_fd_pr__nfet_g5v0d10v5_M7X63G
Xsky130_fd_pr__nfet_g5v0d10v5_M7X63G_54 Vxm m1_2500_6140# Vinm AGND sky130_fd_pr__nfet_g5v0d10v5_M7X63G
Xsky130_fd_pr__nfet_g5v0d10v5_M7X63G_43 Vxm m1_2500_5340# Vinp AGND sky130_fd_pr__nfet_g5v0d10v5_M7X63G
Xsky130_fd_pr__nfet_g5v0d10v5_M7X63G_21 m1_420_6500# m1_2500_6140# m1_4100_8360# AGND
+ sky130_fd_pr__nfet_g5v0d10v5_M7X63G
Xsky130_fd_pr__nfet_g5v0d10v5_M7X63G_87 Vxm m1_2500_6140# Vinm AGND sky130_fd_pr__nfet_g5v0d10v5_M7X63G
Xsky130_fd_pr__nfet_g5v0d10v5_M7X63G_10 Vxm m1_2500_6140# Vinm AGND sky130_fd_pr__nfet_g5v0d10v5_M7X63G
Xsky130_fd_pr__nfet_g5v0d10v5_M7X63G_77 Vxm m1_2500_6140# Vinm AGND sky130_fd_pr__nfet_g5v0d10v5_M7X63G
Xsky130_fd_pr__nfet_g5v0d10v5_M7X63G_55 Vxm m1_2500_5340# Vinp AGND sky130_fd_pr__nfet_g5v0d10v5_M7X63G
Xsky130_fd_pr__nfet_g5v0d10v5_M7X63G_33 Vxm m1_2500_6140# Vinm AGND sky130_fd_pr__nfet_g5v0d10v5_M7X63G
Xsky130_fd_pr__nfet_g5v0d10v5_M7X63G_22 m1_420_6500# m1_2500_5340# m1_4100_9160# AGND
+ sky130_fd_pr__nfet_g5v0d10v5_M7X63G
Xsky130_fd_pr__nfet_g5v0d10v5_M7X63G_88 Vxm m1_2500_5340# Vinp AGND sky130_fd_pr__nfet_g5v0d10v5_M7X63G
Xsky130_fd_pr__nfet_g5v0d10v5_M7X63G_11 Vxm m1_2500_5340# Vinp AGND sky130_fd_pr__nfet_g5v0d10v5_M7X63G
Xsky130_fd_pr__nfet_g5v0d10v5_M7X63G_44 Vxm m1_2500_6140# Vinm AGND sky130_fd_pr__nfet_g5v0d10v5_M7X63G
Xsky130_fd_pr__nfet_g5v0d10v5_M7X63G_78 Vxm m1_2500_6140# Vinm AGND sky130_fd_pr__nfet_g5v0d10v5_M7X63G
Xsky130_fd_pr__nfet_g5v0d10v5_M7X63G_23 Vxm m1_2500_6140# Vinm AGND sky130_fd_pr__nfet_g5v0d10v5_M7X63G
Xsky130_fd_pr__nfet_g5v0d10v5_M7X63G_34 Vxm m1_2500_5340# Vinp AGND sky130_fd_pr__nfet_g5v0d10v5_M7X63G
Xsky130_fd_pr__nfet_g5v0d10v5_M7X63G_12 Vxm m1_2500_6140# Vinm AGND sky130_fd_pr__nfet_g5v0d10v5_M7X63G
Xsky130_fd_pr__nfet_g5v0d10v5_TAUUP3_0 bias_n AGND enb_hv enb_hv bias_n enb_hv enb_hv
+ bias_n AGND AGND sky130_fd_pr__nfet_g5v0d10v5_TAUUP3
Xsky130_fd_pr__nfet_g5v0d10v5_M7X63G_45 Vxm m1_2500_5340# Vinp AGND sky130_fd_pr__nfet_g5v0d10v5_M7X63G
Xsky130_fd_pr__pfet_g5v0d10v5_RJSTGP_0 m1_29940_7140# AVDD m1_29940_7140# m1_29940_7140#
+ AVDD AVDD sky130_fd_pr__pfet_g5v0d10v5_RJSTGP
Xsky130_fd_pr__nfet_g5v0d10v5_M7X63G_79 Vxm m1_2500_5340# Vinp AGND sky130_fd_pr__nfet_g5v0d10v5_M7X63G
Xsky130_fd_pr__nfet_g5v0d10v5_M7X63G_57 Vxm m1_2500_6140# Vinm AGND sky130_fd_pr__nfet_g5v0d10v5_M7X63G
Xsky130_fd_pr__nfet_g5v0d10v5_M7X63G_35 Vxm m1_2500_5340# Vinp AGND sky130_fd_pr__nfet_g5v0d10v5_M7X63G
Xsky130_fd_pr__nfet_g5v0d10v5_M7X63G_13 Vxm m1_2500_6140# Vinm AGND sky130_fd_pr__nfet_g5v0d10v5_M7X63G
Xsky130_fd_pr__pfet_g5v0d10v5_8JQF8T_0 Vop m1_29860_5120# Vom AVDD m1_29880_4800#
+ m1_29860_5120# m1_30900_4740# sky130_fd_pr__pfet_g5v0d10v5_8JQF8T
Xsky130_fd_pr__nfet_g5v0d10v5_M7X63G_46 Vxm m1_2500_6140# Vinm AGND sky130_fd_pr__nfet_g5v0d10v5_M7X63G
Xsky130_fd_pr__nfet_g5v0d10v5_MMHSE7_0 m1_29880_4800# AGND AGND m1_29880_4800# sky130_fd_pr__nfet_g5v0d10v5_MMHSE7
Xsky130_fd_pr__nfet_g5v0d10v5_M7X63G_14 Vxm m1_2500_5340# Vinp AGND sky130_fd_pr__nfet_g5v0d10v5_M7X63G
Xsky130_fd_pr__nfet_g5v0d10v5_M7X63G_58 Vxm m1_2500_5340# Vinp AGND sky130_fd_pr__nfet_g5v0d10v5_M7X63G
Xsky130_fd_pr__nfet_g5v0d10v5_M7X63G_36 Vxm m1_2500_6140# Vinm AGND sky130_fd_pr__nfet_g5v0d10v5_M7X63G
Xsky130_fd_pr__pfet_g5v0d10v5_PNRDLC_30 AVDD AVDD AVDD AVDD sky130_fd_pr__pfet_g5v0d10v5_PNRDLC
Xsky130_fd_pr__nfet_g5v0d10v5_M7X63G_25 Vxm m1_2500_6140# Vinm AGND sky130_fd_pr__nfet_g5v0d10v5_M7X63G
Xsky130_fd_pr__nfet_g5v0d10v5_MMHSE7_1 DGND DGND m1_35390_11200# m1_29880_4800# sky130_fd_pr__nfet_g5v0d10v5_MMHSE7
Xsky130_fd_pr__nfet_g5v0d10v5_46Z5PG_0 AGND level_shifter_up_8/x_hv level_shifter_up_8/x_hv