** sch_path: /foss/designs/sky130_ak_ip__comparator/xschem/tb_comparator_gain_sweep.sch
**.subckt tb_comparator_gain_sweep
Vtrim3 trim[3] GND 0
.save i(vtrim3)
VDD_ANA net1 GND 3.3
.save i(vdd_ana)
VDD_DIG net2 GND 1.8
.save i(vdd_dig)
Ibias GND bias 400n
C3 Vout GND 1p m=1
Vtrim2 trim[2] GND 0
.save i(vtrim2)
Vtrim1 trim[1] GND 0
.save i(vtrim1)
Vtrim0 trim[0] GND 0
.save i(vtrim0)
Vhyst1 hyst[1] GND 0
.save i(vhyst1)
Vhyst0 hyst[0] GND 0
.save i(vhyst0)
Venable enable GND 1.8
.save i(venable)
Vmeas_AVDD net1 AVDD 0
.save i(vmeas_avdd)
Vmeas_DVDD net2 DVDD 0
.save i(vmeas_dvdd)
Vcm Vcm GND 1
.save i(vcm)
Vin Vin_diff GND 0
.save i(vin)
E2 Vinp Vcm Vin_diff GND 0.5
E3 Vinm Vcm Vin_diff GND -0.5
x1 DVDD AVDD GND GND Vinm Vout Vinp enable hyst[1] hyst[0] trim[3] trim[2] trim[1] trim[0] bias
+ comparator_new
**** begin user architecture code

.param mc_mm_switch=0
.param mc_pr_switch=0
.include /foss/pdks/sky130A/libs.tech/ngspice/corners/tt.spice
.include /foss/pdks/sky130A/libs.tech/ngspice/r+c/res_typical__cap_typical.spice
.include /foss/pdks/sky130A/libs.tech/ngspice/r+c/res_typical__cap_typical__lin.spice
.include /foss/pdks/sky130A/libs.tech/ngspice/corners/tt/specialized_cells.spice



.save all
.dc Vcm 0 3.3 0.1
.control
foreach val -10u -6u -4u -2u 2u 4u 6u 10u
   alter Vin $val
   run
end
plot dc1.v(x1.vop)-dc1.v(x1.vom) dc2.v(x1.vop)-dc2.v(x1.vom) dc3.v(x1.vop)-dc3.v(x1.vom)
+ dc4.v(x1.vop)-dc4.v(x1.vom) dc5.v(x1.vop)-dc5.v(x1.vom) dc6.v(x1.vop)-dc6.v(x1.vom) dc7.v(x1.vop)-dc7.v(x1.vom)
+ dc8.v(x1.vop)-dc8.v(x1.vom)
plot dc1.v.x1.vmeas_top_p#branch-dc1.v.x1.vmeas_top_m#branch
+ dc1.v.x1.vmeas_bot_p#branch-dc1.v.x1.vmeas_bot_m#branch
*set filetype = ascii
*write results.raw gain_sweep
.endc


**** end user architecture code
**.ends

* expanding   symbol:  comparator_new.sym # of pins=11
** sym_path: /foss/designs/sky130_ak_ip__comparator/xschem/comparator_new.sym
** sch_path: /foss/designs/sky130_ak_ip__comparator/xschem/comparator_new.sch
.subckt comparator_new DVDD AVDD AGND DGND Vinp Vout Vinm en hyst[1] hyst[0] trim[3] trim[2] trim[1]
+ trim[0] ibias
*.ipin Vinp
*.ipin Vinm
*.ipin AVDD
*.ipin AGND
*.ipin en
*.ipin hyst[1],hyst[0]
*.ipin trim[3],trim[2],trim[1],trim[0]
*.opin Vout
*.ipin DVDD
*.ipin ibias
*.ipin DGND
XM7 bias_n bias_n AGND AGND sky130_fd_pr__nfet_g5v0d10v5 L=8 W=2 nf=1 ad='int((nf+1)/2) * W/nf * 0.29'
+ as='int((nf+2)/2) * W/nf * 0.29' pd='2*int((nf+1)/2) * (W/nf + 0.29)' ps='2*int((nf+2)/2) * (W/nf + 0.29)'
+ nrd='0.29 / W' nrs='0.29 / W' sa=0 sb=0 sd=0 mult=2 m=2
XM6 net3 Vinm Vxm AGND sky130_fd_pr__nfet_g5v0d10v5 L=2 W=8 nf=1 ad='int((nf+1)/2) * W/nf * 0.29' as='int((nf+2)/2) * W/nf * 0.29'
+ pd='2*int((nf+1)/2) * (W/nf + 0.29)' ps='2*int((nf+2)/2) * (W/nf + 0.29)' nrd='0.29 / W' nrs='0.29 / W'
+ sa=0 sb=0 sd=0 mult=16 m=16
XM2 net1 bias_n AGND AGND sky130_fd_pr__nfet_g5v0d10v5 L=8 W=2 nf=1 ad='int((nf+1)/2) * W/nf * 0.29'
+ as='int((nf+2)/2) * W/nf * 0.29' pd='2*int((nf+1)/2) * (W/nf + 0.29)' ps='2*int((nf+2)/2) * (W/nf + 0.29)'
+ nrd='0.29 / W' nrs='0.29 / W' sa=0 sb=0 sd=0 mult=32 m=32
XM1 net2 Vinp Vxm AGND sky130_fd_pr__nfet_g5v0d10v5 L=2 W=8 nf=1 ad='int((nf+1)/2) * W/nf * 0.29' as='int((nf+2)/2) * W/nf * 0.29'
+ pd='2*int((nf+1)/2) * (W/nf + 0.29)' ps='2*int((nf+2)/2) * (W/nf + 0.29)' nrd='0.29 / W' nrs='0.29 / W'
+ sa=0 sb=0 sd=0 mult=16 m=16
XM4 net9 bias_var_p AVDD AVDD sky130_fd_pr__pfet_g5v0d10v5 L=8 W=4 nf=1 ad='int((nf+1)/2) * W/nf * 0.29'
+ as='int((nf+2)/2) * W/nf * 0.29' pd='2*int((nf+1)/2) * (W/nf + 0.29)' ps='2*int((nf+2)/2) * (W/nf + 0.29)'
+ nrd='0.29 / W' nrs='0.29 / W' sa=0 sb=0 sd=0 mult=32 m=32
XM5 net5 Vinm Vxp AVDD sky130_fd_pr__pfet_g5v0d10v5 L=1 W=8 nf=2 ad='int((nf+1)/2) * W/nf * 0.29' as='int((nf+2)/2) * W/nf * 0.29'
+ pd='2*int((nf+1)/2) * (W/nf + 0.29)' ps='2*int((nf+2)/2) * (W/nf + 0.29)' nrd='0.29 / W' nrs='0.29 / W'
+ sa=0 sb=0 sd=0 mult=32 m=32
XM17 net4 Vinp Vxp AVDD sky130_fd_pr__pfet_g5v0d10v5 L=1 W=8 nf=2 ad='int((nf+1)/2) * W/nf * 0.29' as='int((nf+2)/2) * W/nf * 0.29'
+ pd='2*int((nf+1)/2) * (W/nf + 0.29)' ps='2*int((nf+2)/2) * (W/nf + 0.29)' nrd='0.29 / W' nrs='0.29 / W'
+ sa=0 sb=0 sd=0 mult=32 m=32
XM22 net6 bias_p AVDD AVDD sky130_fd_pr__pfet_g5v0d10v5 L=8 W=4 nf=2 ad='int((nf+1)/2) * W/nf * 0.29'
+ as='int((nf+2)/2) * W/nf * 0.29' pd='2*int((nf+1)/2) * (W/nf + 0.29)' ps='2*int((nf+2)/2) * (W/nf + 0.29)'
+ nrd='0.29 / W' nrs='0.29 / W' sa=0 sb=0 sd=0 mult=2 m=2
XM23 Vom_stg2 Vop net6 AVDD sky130_fd_pr__pfet_g5v0d10v5 L=1 W=4 nf=2 ad='int((nf+1)/2) * W/nf * 0.29'
+ as='int((nf+2)/2) * W/nf * 0.29' pd='2*int((nf+1)/2) * (W/nf + 0.29)' ps='2*int((nf+2)/2) * (W/nf + 0.29)'
+ nrd='0.29 / W' nrs='0.29 / W' sa=0 sb=0 sd=0 mult=4 m=4
XM24 Vop_stg2 Vom net6 AVDD sky130_fd_pr__pfet_g5v0d10v5 L=1 W=4 nf=2 ad='int((nf+1)/2) * W/nf * 0.29'
+ as='int((nf+2)/2) * W/nf * 0.29' pd='2*int((nf+1)/2) * (W/nf + 0.29)' ps='2*int((nf+2)/2) * (W/nf + 0.29)'
+ nrd='0.29 / W' nrs='0.29 / W' sa=0 sb=0 sd=0 mult=4 m=4
XM25 Vop_stg2 Vop_stg2 DGND DGND sky130_fd_pr__nfet_g5v0d10v5 L=1 W=2 nf=1 ad='int((nf+1)/2) * W/nf * 0.29'
+ as='int((nf+2)/2) * W/nf * 0.29' pd='2*int((nf+1)/2) * (W/nf + 0.29)' ps='2*int((nf+2)/2) * (W/nf + 0.29)'
+ nrd='0.29 / W' nrs='0.29 / W' sa=0 sb=0 sd=0 mult=2 m=2
XM26 Vom_stg2 Vom_stg2 DGND DGND sky130_fd_pr__nfet_g5v0d10v5 L=1 W=2 nf=1 ad='int((nf+1)/2) * W/nf * 0.29'
+ as='int((nf+2)/2) * W/nf * 0.29' pd='2*int((nf+1)/2) * (W/nf + 0.29)' ps='2*int((nf+2)/2) * (W/nf + 0.29)'
+ nrd='0.29 / W' nrs='0.29 / W' sa=0 sb=0 sd=0 mult=2 m=2
XM27 net7 Vom_stg2 DGND DGND sky130_fd_pr__nfet_g5v0d10v5 L=1 W=2 nf=1 ad='int((nf+1)/2) * W/nf * 0.29'
+ as='int((nf+2)/2) * W/nf * 0.29' pd='2*int((nf+1)/2) * (W/nf + 0.29)' ps='2*int((nf+2)/2) * (W/nf + 0.29)'
+ nrd='0.29 / W' nrs='0.29 / W' sa=0 sb=0 sd=0 mult=2 m=2
XM28 Vdiff Vop_stg2 DGND DGND sky130_fd_pr__nfet_g5v0d10v5 L=1 W=2 nf=1 ad='int((nf+1)/2) * W/nf * 0.29'
+ as='int((nf+2)/2) * W/nf * 0.29' pd='2*int((nf+1)/2) * (W/nf + 0.29)' ps='2*int((nf+2)/2) * (W/nf + 0.29)'
+ nrd='0.29 / W' nrs='0.29 / W' sa=0 sb=0 sd=0 mult=2 m=2
XM29 Vdiff net7 DVDD DVDD sky130_fd_pr__pfet_01v8 L=1 W=4 nf=1 ad='int((nf+1)/2) * W/nf * 0.29' as='int((nf+2)/2) * W/nf * 0.29'
+ pd='2*int((nf+1)/2) * (W/nf + 0.29)' ps='2*int((nf+2)/2) * (W/nf + 0.29)' nrd='0.29 / W' nrs='0.29 / W'
+ sa=0 sb=0 sd=0 mult=2 m=2
XM30 net7 net7 DVDD DVDD sky130_fd_pr__pfet_01v8 L=1 W=4 nf=1 ad='int((nf+1)/2) * W/nf * 0.29' as='int((nf+2)/2) * W/nf * 0.29'
+ pd='2*int((nf+1)/2) * (W/nf + 0.29)' ps='2*int((nf+2)/2) * (W/nf + 0.29)' nrd='0.29 / W' nrs='0.29 / W'
+ sa=0 sb=0 sd=0 mult=2 m=2
XM31 Vout Vdiff DVDD DVDD sky130_fd_pr__pfet_01v8 L=0.15 W=1 nf=2 ad='int((nf+1)/2) * W/nf * 0.29' as='int((nf+2)/2) * W/nf * 0.29'
+ pd='2*int((nf+1)/2) * (W/nf + 0.29)' ps='2*int((nf+2)/2) * (W/nf + 0.29)' nrd='0.29 / W' nrs='0.29 / W'
+ sa=0 sb=0 sd=0 mult=1 m=1
XM44 Vout Vdiff DGND DGND sky130_fd_pr__nfet_01v8 L=0.15 W=0.5 nf=1 ad='int((nf+1)/2) * W/nf * 0.29'
+ as='int((nf+2)/2) * W/nf * 0.29' pd='2*int((nf+1)/2) * (W/nf + 0.29)' ps='2*int((nf+2)/2) * (W/nf + 0.29)'
+ nrd='0.29 / W' nrs='0.29 / W' sa=0 sb=0 sd=0 mult=1 m=1
XM45 ibias ibias bias_n AGND sky130_fd_pr__nfet_g5v0d10v5 L=8 W=1 nf=1 ad='int((nf+1)/2) * W/nf * 0.29'
+ as='int((nf+2)/2) * W/nf * 0.29' pd='2*int((nf+1)/2) * (W/nf + 0.29)' ps='2*int((nf+2)/2) * (W/nf + 0.29)'
+ nrd='0.29 / W' nrs='0.29 / W' sa=0 sb=0 sd=0 mult=1 m=1
XM48 bias_n enb_hv AGND AGND sky130_fd_pr__nfet_g5v0d10v5 L=0.5 W=2 nf=1 ad='int((nf+1)/2) * W/nf * 0.29'
+ as='int((nf+2)/2) * W/nf * 0.29' pd='2*int((nf+1)/2) * (W/nf + 0.29)' ps='2*int((nf+2)/2) * (W/nf + 0.29)'
+ nrd='0.29 / W' nrs='0.29 / W' sa=0 sb=0 sd=0 mult=4 m=4
XM40 net15 bias_hyst net10 AGND sky130_fd_pr__nfet_g5v0d10v5 L=8 W=2 nf=1 ad='int((nf+1)/2) * W/nf * 0.29'
+ as='int((nf+2)/2) * W/nf * 0.29' pd='2*int((nf+1)/2) * (W/nf + 0.29)' ps='2*int((nf+2)/2) * (W/nf + 0.29)'
+ nrd='0.29 / W' nrs='0.29 / W' sa=0 sb=0 sd=0 mult=3 m=3
XM53 Vfold_p DVDD net38 AGND sky130_fd_pr__nfet_g5v0d10v5 L=1 W=2 nf=1 ad='int((nf+1)/2) * W/nf * 0.29'
+ as='int((nf+2)/2) * W/nf * 0.29' pd='2*int((nf+1)/2) * (W/nf + 0.29)' ps='2*int((nf+2)/2) * (W/nf + 0.29)'
+ nrd='0.29 / W' nrs='0.29 / W' sa=0 sb=0 sd=0 mult=4 m=4
XM54 Vfold_m DGND net38 AGND sky130_fd_pr__nfet_g5v0d10v5 L=1 W=2 nf=1 ad='int((nf+1)/2) * W/nf * 0.29'
+ as='int((nf+2)/2) * W/nf * 0.29' pd='2*int((nf+1)/2) * (W/nf + 0.29)' ps='2*int((nf+2)/2) * (W/nf + 0.29)'
+ nrd='0.29 / W' nrs='0.29 / W' sa=0 sb=0 sd=0 mult=4 m=4
XM73 net16 bias_hyst net37 AGND sky130_fd_pr__nfet_g5v0d10v5 L=8 W=2 nf=1 ad='int((nf+1)/2) * W/nf * 0.29'
+ as='int((nf+2)/2) * W/nf * 0.29' pd='2*int((nf+1)/2) * (W/nf + 0.29)' ps='2*int((nf+2)/2) * (W/nf + 0.29)'
+ nrd='0.29 / W' nrs='0.29 / W' sa=0 sb=0 sd=0 mult=1 m=1
XM75 Voutb Vout DVDD DVDD sky130_fd_pr__pfet_01v8 L=0.15 W=1 nf=2 ad='int((nf+1)/2) * W/nf * 0.29' as='int((nf+2)/2) * W/nf * 0.29'
+ pd='2*int((nf+1)/2) * (W/nf + 0.29)' ps='2*int((nf+2)/2) * (W/nf + 0.29)' nrd='0.29 / W' nrs='0.29 / W'
+ sa=0 sb=0 sd=0 mult=1 m=1
XM76 Voutb Vout DGND DGND sky130_fd_pr__nfet_01v8 L=0.15 W=0.5 nf=1 ad='int((nf+1)/2) * W/nf * 0.29'
+ as='int((nf+2)/2) * W/nf * 0.29' pd='2*int((nf+1)/2) * (W/nf + 0.29)' ps='2*int((nf+2)/2) * (W/nf + 0.29)'
+ nrd='0.29 / W' nrs='0.29 / W' sa=0 sb=0 sd=0 mult=1 m=1
XM77 net8 bias_p AVDD AVDD sky130_fd_pr__pfet_g5v0d10v5 L=8 W=4 nf=1 ad='int((nf+1)/2) * W/nf * 0.29'
+ as='int((nf+2)/2) * W/nf * 0.29' pd='2*int((nf+1)/2) * (W/nf + 0.29)' ps='2*int((nf+2)/2) * (W/nf + 0.29)'
+ nrd='0.29 / W' nrs='0.29 / W' sa=0 sb=0 sd=0 mult=1 m=1
XM78 bias_hyst bias_hyst AGND AGND sky130_fd_pr__nfet_g5v0d10v5 L=8 W=2 nf=1 ad='int((nf+1)/2) * W/nf * 0.29'
+ as='int((nf+2)/2) * W/nf * 0.29' pd='2*int((nf+1)/2) * (W/nf + 0.29)' ps='2*int((nf+2)/2) * (W/nf + 0.29)'
+ nrd='0.29 / W' nrs='0.29 / W' sa=0 sb=0 sd=0 mult=2 m=2
XM79 bias_hyst casc_p net8 AVDD sky130_fd_pr__pfet_g5v0d10v5 L=1 W=4 nf=1 ad='int((nf+1)/2) * W/nf * 0.29'
+ as='int((nf+2)/2) * W/nf * 0.29' pd='2*int((nf+1)/2) * (W/nf + 0.29)' ps='2*int((nf+2)/2) * (W/nf + 0.29)'
+ nrd='0.29 / W' nrs='0.29 / W' sa=0 sb=0 sd=0 mult=1 m=1
XM90 Vxm casc_n net1 AGND sky130_fd_pr__nfet_g5v0d10v5 L=1 W=2 nf=1 ad='int((nf+1)/2) * W/nf * 0.29'
+ as='int((nf+2)/2) * W/nf * 0.29' pd='2*int((nf+1)/2) * (W/nf + 0.29)' ps='2*int((nf+2)/2) * (W/nf + 0.29)'
+ nrd='0.29 / W' nrs='0.29 / W' sa=0 sb=0 sd=0 mult=32 m=32
XM91 Vxp casc_p net9 AVDD sky130_fd_pr__pfet_g5v0d10v5 L=1 W=4 nf=1 ad='int((nf+1)/2) * W/nf * 0.29'
+ as='int((nf+2)/2) * W/nf * 0.29' pd='2*int((nf+1)/2) * (W/nf + 0.29)' ps='2*int((nf+2)/2) * (W/nf + 0.29)'
+ nrd='0.29 / W' nrs='0.29 / W' sa=0 sb=0 sd=0 mult=32 m=32
XM94 net14 bias_n AGND AGND sky130_fd_pr__nfet_g5v0d10v5 L=8 W=2 nf=1 ad='int((nf+1)/2) * W/nf * 0.29'
+ as='int((nf+2)/2) * W/nf * 0.29' pd='2*int((nf+1)/2) * (W/nf + 0.29)' ps='2*int((nf+2)/2) * (W/nf + 0.29)'
+ nrd='0.29 / W' nrs='0.29 / W' sa=0 sb=0 sd=0 mult=2 m=2
XM95 bias_p bias_p AVDD AVDD sky130_fd_pr__pfet_g5v0d10v5 L=8 W=4 nf=1 ad='int((nf+1)/2) * W/nf * 0.29'
+ as='int((nf+2)/2) * W/nf * 0.29' pd='2*int((nf+1)/2) * (W/nf + 0.29)' ps='2*int((nf+2)/2) * (W/nf + 0.29)'
+ nrd='0.29 / W' nrs='0.29 / W' sa=0 sb=0 sd=0 mult=2 m=2
XM16 net10 hyst1_hv AGND AGND sky130_fd_pr__nfet_g5v0d10v5 L=0.5 W=2 nf=1 ad='int((nf+1)/2) * W/nf * 0.29'
+ as='int((nf+2)/2) * W/nf * 0.29' pd='2*int((nf+1)/2) * (W/nf + 0.29)' ps='2*int((nf+2)/2) * (W/nf + 0.29)'
+ nrd='0.29 / W' nrs='0.29 / W' sa=0 sb=0 sd=0 mult=3 m=3
XM33 net37 hyst0_hv AGND AGND sky130_fd_pr__nfet_g5v0d10v5 L=0.5 W=2 nf=1 ad='int((nf+1)/2) * W/nf * 0.29'
+ as='int((nf+2)/2) * W/nf * 0.29' pd='2*int((nf+1)/2) * (W/nf + 0.29)' ps='2*int((nf+2)/2) * (W/nf + 0.29)'
+ nrd='0.29 / W' nrs='0.29 / W' sa=0 sb=0 sd=0 mult=1 m=1
XM67 Vop_stg2 Vom_stg2 DGND DGND sky130_fd_pr__nfet_g5v0d10v5 L=0.5 W=1 nf=1 ad='int((nf+1)/2) * W/nf * 0.29'
+ as='int((nf+2)/2) * W/nf * 0.29' pd='2*int((nf+1)/2) * (W/nf + 0.29)' ps='2*int((nf+2)/2) * (W/nf + 0.29)'
+ nrd='0.29 / W' nrs='0.29 / W' sa=0 sb=0 sd=0 mult=1 m=1
XM69 Vom_stg2 Vop_stg2 DGND DGND sky130_fd_pr__nfet_g5v0d10v5 L=0.5 W=1 nf=1 ad='int((nf+1)/2) * W/nf * 0.29'
+ as='int((nf+2)/2) * W/nf * 0.29' pd='2*int((nf+1)/2) * (W/nf + 0.29)' ps='2*int((nf+2)/2) * (W/nf + 0.29)'
+ nrd='0.29 / W' nrs='0.29 / W' sa=0 sb=0 sd=0 mult=1 m=1
XM15 bias_p en_hv AVDD AVDD sky130_fd_pr__pfet_g5v0d10v5 L=0.5 W=4 nf=2 ad='int((nf+1)/2) * W/nf * 0.29'
+ as='int((nf+2)/2) * W/nf * 0.29' pd='2*int((nf+1)/2) * (W/nf + 0.29)' ps='2*int((nf+2)/2) * (W/nf + 0.29)'
+ nrd='0.29 / W' nrs='0.29 / W' sa=0 sb=0 sd=0 mult=4 m=4
x2 AVDD DVDD DGND trim2b_hv trim2_hv trim[2] AGND level_shifter_up
x4 AVDD DVDD DGND trim1b_hv trim1_hv trim[1] AGND level_shifter_up
x5 AVDD DVDD DGND trim0b_hv trim0_hv trim[0] AGND level_shifter_up
x6 AVDD DVDD DGND enb_hv en_hv en AGND level_shifter_up
x7 AVDD DVDD DGND hyst1b_hv hyst1_hv hyst[1] AGND level_shifter_up
x8 AVDD DVDD DGND hyst0b_hv hyst0_hv hyst[0] AGND level_shifter_up
XM32 Vdiff enb_hv DGND DGND sky130_fd_pr__nfet_g5v0d10v5 L=0.5 W=2 nf=1 ad='int((nf+1)/2) * W/nf * 0.29'
+ as='int((nf+2)/2) * W/nf * 0.29' pd='2*int((nf+1)/2) * (W/nf + 0.29)' ps='2*int((nf+2)/2) * (W/nf + 0.29)'
+ nrd='0.29 / W' nrs='0.29 / W' sa=0 sb=0 sd=0 mult=4 m=4
XM34 casc_n bias_n AGND AGND sky130_fd_pr__nfet_g5v0d10v5 L=8 W=2 nf=1 ad='int((nf+1)/2) * W/nf * 0.29'
+ as='int((nf+2)/2) * W/nf * 0.29' pd='2*int((nf+1)/2) * (W/nf + 0.29)' ps='2*int((nf+2)/2) * (W/nf + 0.29)'
+ nrd='0.29 / W' nrs='0.29 / W' sa=0 sb=0 sd=0 mult=1 m=1
XM36 AVDD ibias casc_n AGND sky130_fd_pr__nfet_g5v0d10v5 L=1 W=2 nf=1 ad='int((nf+1)/2) * W/nf * 0.29'
+ as='int((nf+2)/2) * W/nf * 0.29' pd='2*int((nf+1)/2) * (W/nf + 0.29)' ps='2*int((nf+2)/2) * (W/nf + 0.29)'
+ nrd='0.29 / W' nrs='0.29 / W' sa=0 sb=0 sd=0 mult=1 m=1
XM3 Vfold_bot_p Vom AGND AGND sky130_fd_pr__nfet_g5v0d10v5 L=8 W=2 nf=1 ad='int((nf+1)/2) * W/nf * 0.29'
+ as='int((nf+2)/2) * W/nf * 0.29' pd='2*int((nf+1)/2) * (W/nf + 0.29)' ps='2*int((nf+2)/2) * (W/nf + 0.29)'
+ nrd='0.29 / W' nrs='0.29 / W' sa=0 sb=0 sd=0 mult=8 m=8
XM9 Vfold_p bias_p AVDD AVDD sky130_fd_pr__pfet_g5v0d10v5 L=8 W=4 nf=1 ad='int((nf+1)/2) * W/nf * 0.29'
+ as='int((nf+2)/2) * W/nf * 0.29' pd='2*int((nf+1)/2) * (W/nf + 0.29)' ps='2*int((nf+2)/2) * (W/nf + 0.29)'
+ nrd='0.29 / W' nrs='0.29 / W' sa=0 sb=0 sd=0 mult=8 m=8
XM10 Vfold_p bias_var_p2 AVDD AVDD sky130_fd_pr__pfet_g5v0d10v5 L=8 W=4 nf=1 ad='int((nf+1)/2) * W/nf * 0.29'
+ as='int((nf+2)/2) * W/nf * 0.29' pd='2*int((nf+1)/2) * (W/nf + 0.29)' ps='2*int((nf+2)/2) * (W/nf + 0.29)'
+ nrd='0.29 / W' nrs='0.29 / W' sa=0 sb=0 sd=0 mult=16 m=16
XM13 Vfold_bot_p bias_var_n AGND AGND sky130_fd_pr__nfet_g5v0d10v5 L=8 W=2 nf=1 ad='int((nf+1)/2) * W/nf * 0.29'
+ as='int((nf+2)/2) * W/nf * 0.29' pd='2*int((nf+1)/2) * (W/nf + 0.29)' ps='2*int((nf+2)/2) * (W/nf + 0.29)'
+ nrd='0.29 / W' nrs='0.29 / W' sa=0 sb=0 sd=0 mult=16 m=16
XM19 Vop casc_p Vfold_p AVDD sky130_fd_pr__pfet_g5v0d10v5 L=1 W=4 nf=1 ad='int((nf+1)/2) * W/nf * 0.29'
+ as='int((nf+2)/2) * W/nf * 0.29' pd='2*int((nf+1)/2) * (W/nf + 0.29)' ps='2*int((nf+2)/2) * (W/nf + 0.29)'
+ nrd='0.29 / W' nrs='0.29 / W' sa=0 sb=0 sd=0 mult=24 m=24
XM21 Vop casc_n Vfold_bot_p AGND sky130_fd_pr__nfet_g5v0d10v5 L=1 W=2 nf=1 ad='int((nf+1)/2) * W/nf * 0.29'
+ as='int((nf+2)/2) * W/nf * 0.29' pd='2*int((nf+1)/2) * (W/nf + 0.29)' ps='2*int((nf+2)/2) * (W/nf + 0.29)'
+ nrd='0.29 / W' nrs='0.29 / W' sa=0 sb=0 sd=0 mult=24 m=24
XM38 test Vinm net11 AGND sky130_fd_pr__nfet_g5v0d10v5 L=2 W=8 nf=1 ad='int((nf+1)/2) * W/nf * 0.29'
+ as='int((nf+2)/2) * W/nf * 0.29' pd='2*int((nf+1)/2) * (W/nf + 0.29)' ps='2*int((nf+2)/2) * (W/nf + 0.29)'
+ nrd='0.29 / W' nrs='0.29 / W' sa=0 sb=0 sd=0 mult=2 m=2
XM39 test Vinp net11 AGND sky130_fd_pr__nfet_g5v0d10v5 L=2 W=8 nf=1 ad='int((nf+1)/2) * W/nf * 0.29'
+ as='int((nf+2)/2) * W/nf * 0.29' pd='2*int((nf+1)/2) * (W/nf + 0.29)' ps='2*int((nf+2)/2) * (W/nf + 0.29)'
+ nrd='0.29 / W' nrs='0.29 / W' sa=0 sb=0 sd=0 mult=2 m=2
XM49 test bias_var_p2 AVDD AVDD sky130_fd_pr__pfet_g5v0d10v5 L=8 W=4 nf=1 ad='int((nf+1)/2) * W/nf * 0.29'
+ as='int((nf+2)/2) * W/nf * 0.29' pd='2*int((nf+1)/2) * (W/nf + 0.29)' ps='2*int((nf+2)/2) * (W/nf + 0.29)'
+ nrd='0.29 / W' nrs='0.29 / W' sa=0 sb=0 sd=0 mult=1 m=1
XM60 net13 bias_var_p2 AVDD AVDD sky130_fd_pr__pfet_g5v0d10v5 L=8 W=4 nf=1 ad='int((nf+1)/2) * W/nf * 0.29'
+ as='int((nf+2)/2) * W/nf * 0.29' pd='2*int((nf+1)/2) * (W/nf + 0.29)' ps='2*int((nf+2)/2) * (W/nf + 0.29)'
+ nrd='0.29 / W' nrs='0.29 / W' sa=0 sb=0 sd=0 mult=1 m=1
XM61 net12 bias_n AGND AGND sky130_fd_pr__nfet_g5v0d10v5 L=8 W=2 nf=1 ad='int((nf+1)/2) * W/nf * 0.29'
+ as='int((nf+2)/2) * W/nf * 0.29' pd='2*int((nf+1)/2) * (W/nf + 0.29)' ps='2*int((nf+2)/2) * (W/nf + 0.29)'
+ nrd='0.29 / W' nrs='0.29 / W' sa=0 sb=0 sd=0 mult=1 m=1
XM62 bias_var_p bias_var_p AVDD AVDD sky130_fd_pr__pfet_g5v0d10v5 L=8 W=4 nf=1 ad='int((nf+1)/2) * W/nf * 0.29'
+ as='int((nf+2)/2) * W/nf * 0.29' pd='2*int((nf+1)/2) * (W/nf + 0.29)' ps='2*int((nf+2)/2) * (W/nf + 0.29)'
+ nrd='0.29 / W' nrs='0.29 / W' sa=0 sb=0 sd=0 mult=1 m=1
XM68 bias_var_n bias_var_p AVDD AVDD sky130_fd_pr__pfet_g5v0d10v5 L=8 W=4 nf=1 ad='int((nf+1)/2) * W/nf * 0.29'
+ as='int((nf+2)/2) * W/nf * 0.29' pd='2*int((nf+1)/2) * (W/nf + 0.29)' ps='2*int((nf+2)/2) * (W/nf + 0.29)'
+ nrd='0.29 / W' nrs='0.29 / W' sa=0 sb=0 sd=0 mult=1 m=1
XM70 bias_var_n bias_var_n AGND AGND sky130_fd_pr__nfet_g5v0d10v5 L=8 W=2 nf=1 ad='int((nf+1)/2) * W/nf * 0.29'
+ as='int((nf+2)/2) * W/nf * 0.29' pd='2*int((nf+1)/2) * (W/nf + 0.29)' ps='2*int((nf+2)/2) * (W/nf + 0.29)'
+ nrd='0.29 / W' nrs='0.29 / W' sa=0 sb=0 sd=0 mult=1 m=1
XM8 Vfold_bot_m bias_var_n AGND AGND sky130_fd_pr__nfet_g5v0d10v5 L=8 W=2 nf=1 ad='int((nf+1)/2) * W/nf * 0.29'
+ as='int((nf+2)/2) * W/nf * 0.29' pd='2*int((nf+1)/2) * (W/nf + 0.29)' ps='2*int((nf+2)/2) * (W/nf + 0.29)'
+ nrd='0.29 / W' nrs='0.29 / W' sa=0 sb=0 sd=0 mult=16 m=16
XM11 Vfold_m bias_var_p2 AVDD AVDD sky130_fd_pr__pfet_g5v0d10v5 L=8 W=4 nf=1 ad='int((nf+1)/2) * W/nf * 0.29'
+ as='int((nf+2)/2) * W/nf * 0.29' pd='2*int((nf+1)/2) * (W/nf + 0.29)' ps='2*int((nf+2)/2) * (W/nf + 0.29)'
+ nrd='0.29 / W' nrs='0.29 / W' sa=0 sb=0 sd=0 mult=16 m=16
XM12 Vfold_m bias_p AVDD AVDD sky130_fd_pr__pfet_g5v0d10v5 L=8 W=4 nf=1 ad='int((nf+1)/2) * W/nf * 0.29'
+ as='int((nf+2)/2) * W/nf * 0.29' pd='2*int((nf+1)/2) * (W/nf + 0.29)' ps='2*int((nf+2)/2) * (W/nf + 0.29)'
+ nrd='0.29 / W' nrs='0.29 / W' sa=0 sb=0 sd=0 mult=8 m=8
XM14 Vfold_bot_m Vom AGND AGND sky130_fd_pr__nfet_g5v0d10v5 L=8 W=2 nf=1 ad='int((nf+1)/2) * W/nf * 0.29'
+ as='int((nf+2)/2) * W/nf * 0.29' pd='2*int((nf+1)/2) * (W/nf + 0.29)' ps='2*int((nf+2)/2) * (W/nf + 0.29)'
+ nrd='0.29 / W' nrs='0.29 / W' sa=0 sb=0 sd=0 mult=8 m=8
XM18 Vom casc_p Vfold_m AVDD sky130_fd_pr__pfet_g5v0d10v5 L=1 W=4 nf=1 ad='int((nf+1)/2) * W/nf * 0.29'
+ as='int((nf+2)/2) * W/nf * 0.29' pd='2*int((nf+1)/2) * (W/nf + 0.29)' ps='2*int((nf+2)/2) * (W/nf + 0.29)'
+ nrd='0.29 / W' nrs='0.29 / W' sa=0 sb=0 sd=0 mult=24 m=24
XM20 Vom casc_n Vfold_bot_m AGND sky130_fd_pr__nfet_g5v0d10v5 L=1 W=2 nf=1 ad='int((nf+1)/2) * W/nf * 0.29'
+ as='int((nf+2)/2) * W/nf * 0.29' pd='2*int((nf+1)/2) * (W/nf + 0.29)' ps='2*int((nf+2)/2) * (W/nf + 0.29)'
+ nrd='0.29 / W' nrs='0.29 / W' sa=0 sb=0 sd=0 mult=24 m=24
XM84 bias_var_p casc_n net12 AGND sky130_fd_pr__nfet_g5v0d10v5 L=1 W=2 nf=1 ad='int((nf+1)/2) * W/nf * 0.29'
+ as='int((nf+2)/2) * W/nf * 0.29' pd='2*int((nf+1)/2) * (W/nf + 0.29)' ps='2*int((nf+2)/2) * (W/nf + 0.29)'
+ nrd='0.29 / W' nrs='0.29 / W' sa=0 sb=0 sd=0 mult=1 m=1
XM85 bias_var_p casc_p net13 AVDD sky130_fd_pr__pfet_g5v0d10v5 L=1 W=4 nf=1 ad='int((nf+1)/2) * W/nf * 0.29'
+ as='int((nf+2)/2) * W/nf * 0.29' pd='2*int((nf+1)/2) * (W/nf + 0.29)' ps='2*int((nf+2)/2) * (W/nf + 0.29)'
+ nrd='0.29 / W' nrs='0.29 / W' sa=0 sb=0 sd=0 mult=1 m=1
XM86 bias_p casc_n net14 AGND sky130_fd_pr__nfet_g5v0d10v5 L=1 W=2 nf=1 ad='int((nf+1)/2) * W/nf * 0.29'
+ as='int((nf+2)/2) * W/nf * 0.29' pd='2*int((nf+1)/2) * (W/nf + 0.29)' ps='2*int((nf+2)/2) * (W/nf + 0.29)'
+ nrd='0.29 / W' nrs='0.29 / W' sa=0 sb=0 sd=0 mult=2 m=2
XM88 net38 casc_n net15 AGND sky130_fd_pr__nfet_g5v0d10v5 L=1 W=2 nf=1 ad='int((nf+1)/2) * W/nf * 0.29'
+ as='int((nf+2)/2) * W/nf * 0.29' pd='2*int((nf+1)/2) * (W/nf + 0.29)' ps='2*int((nf+2)/2) * (W/nf + 0.29)'
+ nrd='0.29 / W' nrs='0.29 / W' sa=0 sb=0 sd=0 mult=3 m=3
XM89 Vfold_p Vtrim_m net18 AGND sky130_fd_pr__nfet_g5v0d10v5 L=2 W=8 nf=1 ad='int((nf+1)/2) * W/nf * 0.29'
+ as='int((nf+2)/2) * W/nf * 0.29' pd='2*int((nf+1)/2) * (W/nf + 0.29)' ps='2*int((nf+2)/2) * (W/nf + 0.29)'
+ nrd='0.29 / W' nrs='0.29 / W' sa=0 sb=0 sd=0 mult=4 m=4
XM92 net17 AGND AGND AGND sky130_fd_pr__nfet_g5v0d10v5 L=8 W=2 nf=1 ad='int((nf+1)/2) * W/nf * 0.29'
+ as='int((nf+2)/2) * W/nf * 0.29' pd='2*int((nf+1)/2) * (W/nf + 0.29)' ps='2*int((nf+2)/2) * (W/nf + 0.29)'
+ nrd='0.29 / W' nrs='0.29 / W' sa=0 sb=0 sd=0 mult=1 m=1
XM93 Vfold_m Vtrim_p net18 AGND sky130_fd_pr__nfet_g5v0d10v5 L=2 W=8 nf=1 ad='int((nf+1)/2) * W/nf * 0.29'
+ as='int((nf+2)/2) * W/nf * 0.29' pd='2*int((nf+1)/2) * (W/nf + 0.29)' ps='2*int((nf+2)/2) * (W/nf + 0.29)'
+ nrd='0.29 / W' nrs='0.29 / W' sa=0 sb=0 sd=0 mult=4 m=4
XM97 net18 casc_n net17 AGND sky130_fd_pr__nfet_g5v0d10v5 L=1 W=2 nf=1 ad='int((nf+1)/2) * W/nf * 0.29'
+ as='int((nf+2)/2) * W/nf * 0.29' pd='2*int((nf+1)/2) * (W/nf + 0.29)' ps='2*int((nf+2)/2) * (W/nf + 0.29)'
+ nrd='0.29 / W' nrs='0.29 / W' sa=0 sb=0 sd=0 mult=1 m=1
XM42 Vmid Vmid AVDD AVDD sky130_fd_pr__pfet_g5v0d10v5 L=8 W=4 nf=1 ad='int((nf+1)/2) * W/nf * 0.29' as='int((nf+2)/2) * W/nf * 0.29'
+ pd='2*int((nf+1)/2) * (W/nf + 0.29)' ps='2*int((nf+2)/2) * (W/nf + 0.29)' nrd='0.29 / W' nrs='0.29 / W'
+ sa=0 sb=0 sd=0 mult=2 m=2
XM46 Vtrim_p trim3_hv Vmid AVDD sky130_fd_pr__pfet_g5v0d10v5 L=0.5 W=4 nf=1 ad='int((nf+1)/2) * W/nf * 0.29'
+ as='int((nf+2)/2) * W/nf * 0.29' pd='2*int((nf+1)/2) * (W/nf + 0.29)' ps='2*int((nf+2)/2) * (W/nf + 0.29)'
+ nrd='0.29 / W' nrs='0.29 / W' sa=0 sb=0 sd=0 mult=8 m=8
XM35 Vtrim_m bias_n AGND AGND sky130_fd_pr__nfet_g5v0d10v5 L=8 W=2 nf=1 ad='int((nf+1)/2) * W/nf * 0.29'
+ as='int((nf+2)/2) * W/nf * 0.29' pd='2*int((nf+1)/2) * (W/nf + 0.29)' ps='2*int((nf+2)/2) * (W/nf + 0.29)'
+ nrd='0.29 / W' nrs='0.29 / W' sa=0 sb=0 sd=0 mult=1 m=1
XM37 Vtrim_p bias_n AGND AGND sky130_fd_pr__nfet_g5v0d10v5 L=8 W=2 nf=1 ad='int((nf+1)/2) * W/nf * 0.29'
+ as='int((nf+2)/2) * W/nf * 0.29' pd='2*int((nf+1)/2) * (W/nf + 0.29)' ps='2*int((nf+2)/2) * (W/nf + 0.29)'
+ nrd='0.29 / W' nrs='0.29 / W' sa=0 sb=0 sd=0 mult=1 m=1
XM41 net19 trim2_hv Vmid AVDD sky130_fd_pr__pfet_g5v0d10v5 L=0.5 W=4 nf=1 ad='int((nf+1)/2) * W/nf * 0.29'
+ as='int((nf+2)/2) * W/nf * 0.29' pd='2*int((nf+1)/2) * (W/nf + 0.29)' ps='2*int((nf+2)/2) * (W/nf + 0.29)'
+ nrd='0.29 / W' nrs='0.29 / W' sa=0 sb=0 sd=0 mult=8 m=8
XM43 net20 trim1_hv net19 AVDD sky130_fd_pr__pfet_g5v0d10v5 L=0.5 W=4 nf=1 ad='int((nf+1)/2) * W/nf * 0.29'
+ as='int((nf+2)/2) * W/nf * 0.29' pd='2*int((nf+1)/2) * (W/nf + 0.29)' ps='2*int((nf+2)/2) * (W/nf + 0.29)'
+ nrd='0.29 / W' nrs='0.29 / W' sa=0 sb=0 sd=0 mult=8 m=8
XM47 Vtrim_p trim0_hv net20 AVDD sky130_fd_pr__pfet_g5v0d10v5 L=0.5 W=4 nf=1 ad='int((nf+1)/2) * W/nf * 0.29'
+ as='int((nf+2)/2) * W/nf * 0.29' pd='2*int((nf+1)/2) * (W/nf + 0.29)' ps='2*int((nf+2)/2) * (W/nf + 0.29)'
+ nrd='0.29 / W' nrs='0.29 / W' sa=0 sb=0 sd=0 mult=8 m=8
XM50 Vtrim_m trim3b_hv Vmid AVDD sky130_fd_pr__pfet_g5v0d10v5 L=0.5 W=4 nf=1 ad='int((nf+1)/2) * W/nf * 0.29'
+ as='int((nf+2)/2) * W/nf * 0.29' pd='2*int((nf+1)/2) * (W/nf + 0.29)' ps='2*int((nf+2)/2) * (W/nf + 0.29)'
+ nrd='0.29 / W' nrs='0.29 / W' sa=0 sb=0 sd=0 mult=8 m=8
XM51 net21 trim2_hv Vmid AVDD sky130_fd_pr__pfet_g5v0d10v5 L=0.5 W=4 nf=1 ad='int((nf+1)/2) * W/nf * 0.29'
+ as='int((nf+2)/2) * W/nf * 0.29' pd='2*int((nf+1)/2) * (W/nf + 0.29)' ps='2*int((nf+2)/2) * (W/nf + 0.29)'
+ nrd='0.29 / W' nrs='0.29 / W' sa=0 sb=0 sd=0 mult=8 m=8
XM52 net22 trim1_hv net21 AVDD sky130_fd_pr__pfet_g5v0d10v5 L=0.5 W=4 nf=1 ad='int((nf+1)/2) * W/nf * 0.29'
+ as='int((nf+2)/2) * W/nf * 0.29' pd='2*int((nf+1)/2) * (W/nf + 0.29)' ps='2*int((nf+2)/2) * (W/nf + 0.29)'
+ nrd='0.29 / W' nrs='0.29 / W' sa=0 sb=0 sd=0 mult=8 m=8
XM55 Vtrim_m trim0_hv net22 AVDD sky130_fd_pr__pfet_g5v0d10v5 L=0.5 W=4 nf=1 ad='int((nf+1)/2) * W/nf * 0.29'
+ as='int((nf+2)/2) * W/nf * 0.29' pd='2*int((nf+1)/2) * (W/nf + 0.29)' ps='2*int((nf+2)/2) * (W/nf + 0.29)'
+ nrd='0.29 / W' nrs='0.29 / W' sa=0 sb=0 sd=0 mult=8 m=8
x1 AVDD DVDD DGND trim3b_hv trim3_hv trim[3] AGND level_shifter_up
XM87 bias_var_p en_hv AVDD AVDD sky130_fd_pr__pfet_g5v0d10v5 L=0.5 W=4 nf=2 ad='int((nf+1)/2) * W/nf * 0.29'
+ as='int((nf+2)/2) * W/nf * 0.29' pd='2*int((nf+1)/2) * (W/nf + 0.29)' ps='2*int((nf+2)/2) * (W/nf + 0.29)'
+ nrd='0.29 / W' nrs='0.29 / W' sa=0 sb=0 sd=0 mult=4 m=4
XM98 bias_var_n enb_hv AGND AGND sky130_fd_pr__nfet_g5v0d10v5 L=0.5 W=2 nf=1 ad='int((nf+1)/2) * W/nf * 0.29'
+ as='int((nf+2)/2) * W/nf * 0.29' pd='2*int((nf+1)/2) * (W/nf + 0.29)' ps='2*int((nf+2)/2) * (W/nf + 0.29)'
+ nrd='0.29 / W' nrs='0.29 / W' sa=0 sb=0 sd=0 mult=4 m=4
XM100 bias_var_p2 en_hv AVDD AVDD sky130_fd_pr__pfet_g5v0d10v5 L=0.5 W=4 nf=2 ad='int((nf+1)/2) * W/nf * 0.29'
+ as='int((nf+2)/2) * W/nf * 0.29' pd='2*int((nf+1)/2) * (W/nf + 0.29)' ps='2*int((nf+2)/2) * (W/nf + 0.29)'
+ nrd='0.29 / W' nrs='0.29 / W' sa=0 sb=0 sd=0 mult=4 m=4
XM63 net33 bias_n net29 AGND sky130_fd_pr__nfet_g5v0d10v5 L=8 W=0.5 nf=1 ad='int((nf+1)/2) * W/nf * 0.29'
+ as='int((nf+2)/2) * W/nf * 0.29' pd='2*int((nf+1)/2) * (W/nf + 0.29)' ps='2*int((nf+2)/2) * (W/nf + 0.29)'
+ nrd='0.29 / W' nrs='0.29 / W' sa=0 sb=0 sd=0 mult=1 m=1
XM99 net23 net24 AVDD AVDD sky130_fd_pr__pfet_g5v0d10v5 L=8 W=4 nf=1 ad='int((nf+1)/2) * W/nf * 0.29'
+ as='int((nf+2)/2) * W/nf * 0.29' pd='2*int((nf+1)/2) * (W/nf + 0.29)' ps='2*int((nf+2)/2) * (W/nf + 0.29)'
+ nrd='0.29 / W' nrs='0.29 / W' sa=0 sb=0 sd=0 mult=1 m=1
XM101 net25 bias_n AGND AGND sky130_fd_pr__nfet_g5v0d10v5 L=8 W=2 nf=1 ad='int((nf+1)/2) * W/nf * 0.29'
+ as='int((nf+2)/2) * W/nf * 0.29' pd='2*int((nf+1)/2) * (W/nf + 0.29)' ps='2*int((nf+2)/2) * (W/nf + 0.29)'
+ nrd='0.29 / W' nrs='0.29 / W' sa=0 sb=0 sd=0 mult=1 m=1
XM102 net24 net24 net23 AVDD sky130_fd_pr__pfet_g5v0d10v5 L=1 W=4 nf=1 ad='int((nf+1)/2) * W/nf * 0.29'
+ as='int((nf+2)/2) * W/nf * 0.29' pd='2*int((nf+1)/2) * (W/nf + 0.29)' ps='2*int((nf+2)/2) * (W/nf + 0.29)'
+ nrd='0.29 / W' nrs='0.29 / W' sa=0 sb=0 sd=0 mult=2 m=2
XM103 casc_p casc_p net23 AVDD sky130_fd_pr__pfet_g5v0d10v5 L=8 W=4 nf=1 ad='int((nf+1)/2) * W/nf * 0.29'
+ as='int((nf+2)/2) * W/nf * 0.29' pd='2*int((nf+1)/2) * (W/nf + 0.29)' ps='2*int((nf+2)/2) * (W/nf + 0.29)'
+ nrd='0.29 / W' nrs='0.29 / W' sa=0 sb=0 sd=0 mult=1 m=1
XM104 casc_p casc_n net25 AGND sky130_fd_pr__nfet_g5v0d10v5 L=1 W=2 nf=1 ad='int((nf+1)/2) * W/nf * 0.29'
+ as='int((nf+2)/2) * W/nf * 0.29' pd='2*int((nf+1)/2) * (W/nf + 0.29)' ps='2*int((nf+2)/2) * (W/nf + 0.29)'
+ nrd='0.29 / W' nrs='0.29 / W' sa=0 sb=0 sd=0 mult=1 m=1
XM105 net24 casc_n net32 AGND sky130_fd_pr__nfet_g5v0d10v5 L=1 W=0.5 nf=1 ad='int((nf+1)/2) * W/nf * 0.29'
+ as='int((nf+2)/2) * W/nf * 0.29' pd='2*int((nf+1)/2) * (W/nf + 0.29)' ps='2*int((nf+2)/2) * (W/nf + 0.29)'
+ nrd='0.29 / W' nrs='0.29 / W' sa=0 sb=0 sd=0 mult=1 m=1
XM106 net26 bias_n AGND AGND sky130_fd_pr__nfet_g5v0d10v5 L=8 W=2 nf=1 ad='int((nf+1)/2) * W/nf * 0.29'
+ as='int((nf+2)/2) * W/nf * 0.29' pd='2*int((nf+1)/2) * (W/nf + 0.29)' ps='2*int((nf+2)/2) * (W/nf + 0.29)'
+ nrd='0.29 / W' nrs='0.29 / W' sa=0 sb=0 sd=0 mult=1 m=1
XM107 net11 casc_n net26 AGND sky130_fd_pr__nfet_g5v0d10v5 L=1 W=2 nf=1 ad='int((nf+1)/2) * W/nf * 0.29'
+ as='int((nf+2)/2) * W/nf * 0.29' pd='2*int((nf+1)/2) * (W/nf + 0.29)' ps='2*int((nf+2)/2) * (W/nf + 0.29)'
+ nrd='0.29 / W' nrs='0.29 / W' sa=0 sb=0 sd=0 mult=1 m=1
XM96 net27 bias_n net34 AGND sky130_fd_pr__nfet_g5v0d10v5 L=8 W=0.5 nf=1 ad='int((nf+1)/2) * W/nf * 0.29'
+ as='int((nf+2)/2) * W/nf * 0.29' pd='2*int((nf+1)/2) * (W/nf + 0.29)' ps='2*int((nf+2)/2) * (W/nf + 0.29)'
+ nrd='0.29 / W' nrs='0.29 / W' sa=0 sb=0 sd=0 mult=1 m=1
XM108 net35 casc_n net27 AGND sky130_fd_pr__nfet_g5v0d10v5 L=1 W=0.5 nf=1 ad='int((nf+1)/2) * W/nf * 0.29'
+ as='int((nf+2)/2) * W/nf * 0.29' pd='2*int((nf+1)/2) * (W/nf + 0.29)' ps='2*int((nf+2)/2) * (W/nf + 0.29)'
+ nrd='0.29 / W' nrs='0.29 / W' sa=0 sb=0 sd=0 mult=1 m=1
XM109 bias_var_p2 casc_p test AVDD sky130_fd_pr__pfet_g5v0d10v5 L=1 W=4 nf=1 ad='int((nf+1)/2) * W/nf * 0.29'
+ as='int((nf+2)/2) * W/nf * 0.29' pd='2*int((nf+1)/2) * (W/nf + 0.29)' ps='2*int((nf+2)/2) * (W/nf + 0.29)'
+ nrd='0.29 / W' nrs='0.29 / W' sa=0 sb=0 sd=0 mult=1 m=1
XM110 net31 casc_n net28 AGND sky130_fd_pr__nfet_g5v0d10v5 L=1 W=0.5 nf=1 ad='int((nf+1)/2) * W/nf * 0.29'
+ as='int((nf+2)/2) * W/nf * 0.29' pd='2*int((nf+1)/2) * (W/nf + 0.29)' ps='2*int((nf+2)/2) * (W/nf + 0.29)'
+ nrd='0.29 / W' nrs='0.29 / W' sa=0 sb=0 sd=0 mult=1 m=1
XM111 net28 bias_n net30 AGND sky130_fd_pr__nfet_g5v0d10v5 L=8 W=0.5 nf=1 ad='int((nf+1)/2) * W/nf * 0.29'
+ as='int((nf+2)/2) * W/nf * 0.29' pd='2*int((nf+1)/2) * (W/nf + 0.29)' ps='2*int((nf+2)/2) * (W/nf + 0.29)'
+ nrd='0.29 / W' nrs='0.29 / W' sa=0 sb=0 sd=0 mult=1 m=1
XR5 Vtrim_m net22 AVDD sky130_fd_pr__res_xhigh_po_2p85 L=2.85*9 mult=1 m=1
XR1 net22 net21 AVDD sky130_fd_pr__res_xhigh_po_2p85 L=2.85*18 mult=1 m=1
XR2 net21 Vmid AVDD sky130_fd_pr__res_xhigh_po_2p85 L=2.85*36 mult=1 m=1
XR3 net19 Vmid AVDD sky130_fd_pr__res_xhigh_po_2p85 L=2.85*36 mult=1 m=1
XR4 net20 net19 AVDD sky130_fd_pr__res_xhigh_po_2p85 L=2.85*18 mult=1 m=1
XR6 Vtrim_p net20 AVDD sky130_fd_pr__res_xhigh_po_2p85 L=2.85*9 mult=1 m=1
XM57 net29 bias_n AGND AGND sky130_fd_pr__nfet_g5v0d10v5 L=8 W=0.5 nf=1 ad='int((nf+1)/2) * W/nf * 0.29'
+ as='int((nf+2)/2) * W/nf * 0.29' pd='2*int((nf+1)/2) * (W/nf + 0.29)' ps='2*int((nf+2)/2) * (W/nf + 0.29)'
+ nrd='0.29 / W' nrs='0.29 / W' sa=0 sb=0 sd=0 mult=1 m=1
XM58 net30 bias_n AGND AGND sky130_fd_pr__nfet_g5v0d10v5 L=8 W=0.5 nf=1 ad='int((nf+1)/2) * W/nf * 0.29'