** sch_path: /foss/designs/sky130_ak_ip__comparator/xschem/tb_comparator_trim.sch
**.subckt tb_comparator_trim
Vp Vinp Vinm pulse(-15m 15m 0 3m 3m 10m 20m)
.save i(vp)
VDD_ANA net1 GND 3.3
.save i(vdd_ana)
VDD_DIG net2 GND 1.8
.save i(vdd_dig)
Ibias GND bias 800n
C3 Vout GND 1p m=1
Vm Vinm GND 2.5
.save i(vm)
Vmeas_AVDD net1 AVDD 0
.save i(vmeas_avdd)
Vmeas_DVDD net2 DVDD 0
.save i(vmeas_dvdd)
E1 Vin_diff GND Vinp Vinm 1
Vtrim3 trim[3] GND 0
.save i(vtrim3)
Vtrim2 trim[2] GND 0
.save i(vtrim2)
Vtrim1 trim[1] GND 1.8
.save i(vtrim1)
Vtrim0 trim[0] GND 1.8
.save i(vtrim0)
Vhyst1 hyst[1] GND 0
.save i(vhyst1)
Vhyst0 hyst[0] GND 0
.save i(vhyst0)
Venable enable GND 1.8
.save i(venable)
Vtrim5 trim[5] GND 0
.save i(vtrim5)
Vtrim4 trim[4] GND 0
.save i(vtrim4)
x1 DVDD AVDD GND GND Vinp Vout Vinm enable hyst[1] hyst[0] trim[5] trim[4] trim[3] trim[2] bias
+ comparator_new
**** begin user architecture code

.param mc_mm_switch=0
.param mc_pr_switch=0
.include /foss/pdks/sky130A/libs.tech/ngspice/corners/tt.spice
.include /foss/pdks/sky130A/libs.tech/ngspice/r+c/res_typical__cap_typical.spice
.include /foss/pdks/sky130A/libs.tech/ngspice/r+c/res_typical__cap_typical__lin.spice
.include /foss/pdks/sky130A/libs.tech/ngspice/corners/tt/specialized_cells.spice



.save all
*.tran 1u 3m
.dc Vp -10m 10m 50u
.option seed = 11

.control
let num_meas = 27
let input_offset = unitvec(num_meas)
let i = 0
foreach temp_val -40 27 85
   set temp=$temp_val
   foreach vdd_ana_val 2.95 3.3 5.5
      alter VDD_ANA $vdd_ana_val
      foreach vm_val 1.2 {$vdd_ana_val/2} {-0.1+$vdd_ana_val}
         alter Vm $vm_val
         *foreach ibias_val 392n 400n 408n
         foreach ibias_val 400n
            alter Ibias $ibias_val
            run
            meas dc in_cross when v(vout)=0.9 rise=1
            let input_offset[i] = in_cross
            let i = i+1
         end
      end
   end
end
*plot tran1.v(vout) tran2.v(vout) tran3.v(vout) tran4.v(vout) tran5.v(vout) tran6.v(vout)
*+ tran7.v(vout) tran8.v(vout) tran9.v(vout) tran10.v(vout) tran11.v(vout) tran12.v(vout) tran13.v(vout)
*+ tran14.v(vout) tran15.v(vout) tran16.v(vout) tran16.v(vout) tran17.v(vout) tran18.v(vout)
plot dc1.v(vout) dc2.v(vout) dc3.v(vout) dc4.v(vout) dc5.v(vout) dc6.v(vout) dc7.v(vout) dc8.v(vout)
+ dc9.v(vout) dc10.v(vout) dc11.v(vout) dc12.v(vout) dc13.v(vout) dc14.v(vout) dc15.v(vout) dc16.v(vout)
+ dc17.v(vout) dc18.v(vout) dc19.v(vout) dc20.v(vout) dc21.v(vout) dc22.v(vout) dc23.v(vout) dc24.v(vout)
+ dc25.v(vout) dc26.v(vout) dc27.v(vout)
plot dc1.v.x1.vmeas_bot_p#branch-dc1.v.x1.vmeas_bot_m#branch
+ dc2.v.x1.vmeas_bot_p#branch-dc2.v.x1.vmeas_bot_m#branch dc3.v.x1.vmeas_bot_p#branch-dc3.v.x1.vmeas_bot_m#branch
+ dc4.v.x1.vmeas_bot_p#branch-dc4.v.x1.vmeas_bot_m#branch dc5.v.x1.vmeas_bot_p#branch-dc5.v.x1.vmeas_bot_m#branch
+ dc6.v.x1.vmeas_bot_p#branch-dc6.v.x1.vmeas_bot_m#branch dc7.v.x1.vmeas_bot_p#branch-dc7.v.x1.vmeas_bot_m#branch
+ dc8.v.x1.vmeas_bot_p#branch-dc8.v.x1.vmeas_bot_m#branch dc9.v.x1.vmeas_bot_p#branch-dc9.v.x1.vmeas_bot_m#branch
+ dc10.v.x1.vmeas_bot_p#branch-dc10.v.x1.vmeas_bot_m#branch dc11.v.x1.vmeas_bot_p#branch-dc11.v.x1.vmeas_bot_m#branch
+ dc12.v.x1.vmeas_bot_p#branch-dc12.v.x1.vmeas_bot_m#branch dc13.v.x1.vmeas_bot_p#branch-dc13.v.x1.vmeas_bot_m#branch
+ dc14.v.x1.vmeas_bot_p#branch-dc14.v.x1.vmeas_bot_m#branch dc15.v.x1.vmeas_bot_p#branch-dc15.v.x1.vmeas_bot_m#branch
+ dc16.v.x1.vmeas_bot_p#branch-dc16.v.x1.vmeas_bot_m#branch dc17.v.x1.vmeas_bot_p#branch-dc17.v.x1.vmeas_bot_m#branch
+ dc18.v.x1.vmeas_bot_p#branch-dc18.v.x1.vmeas_bot_m#branch dc19.v.x1.vmeas_bot_p#branch-dc19.v.x1.vmeas_bot_m#branch
+ dc20.v.x1.vmeas_bot_p#branch-dc20.v.x1.vmeas_bot_m#branch dc21.v.x1.vmeas_bot_p#branch-dc21.v.x1.vmeas_bot_m#branch
+ dc22.v.x1.vmeas_bot_p#branch-dc22.v.x1.vmeas_bot_m#branch dc23.v.x1.vmeas_bot_p#branch-dc23.v.x1.vmeas_bot_m#branch
+ dc24.v.x1.vmeas_bot_p#branch-dc24.v.x1.vmeas_bot_m#branch dc25.v.x1.vmeas_bot_p#branch-dc25.v.x1.vmeas_bot_m#branch
+ dc26.v.x1.vmeas_bot_p#branch-dc26.v.x1.vmeas_bot_m#branch dc27.v.x1.vmeas_bot_p#branch-dc27.v.x1.vmeas_bot_m#branch
plot dc1.v(x1.vop)-dc1v(x1.vom) dc2.v(x1.vop)-dc2v(x1.vom) dc3.v(x1.vop)-dc3v(x1.vom)
+ dc4.v(x1.vop)-dc4v(x1.vom) dc5.v(x1.vop)-dc5v(x1.vom) dc6.v(x1.vop)-dc6v(x1.vom) dc7.v(x1.vop)-dc7v(x1.vom)
+ dc8.v(x1.vop)-dc8v(x1.vom) dc9.v(x1.vop)-dc9v(x1.vom) dc10.v(x1.vop)-dc10v(x1.vom) dc11.v(x1.vop)-dc11v(x1.vom)
+ dc12.v(x1.vop)-dc12v(x1.vom) dc13.v(x1.vop)-dc13v(x1.vom) dc14.v(x1.vop)-dc14v(x1.vom) dc15.v(x1.vop)-dc15v(x1.vom)
+ dc16.v(x1.vop)-dc16v(x1.vom) dc17.v(x1.vop)-dc17v(x1.vom) dc18.v(x1.vop)-dc18v(x1.vom) dc19.v(x1.vop)-dc19v(x1.vom)
+ dc20.v(x1.vop)-dc20v(x1.vom) dc21.v(x1.vop)-dc21v(x1.vom) dc22.v(x1.vop)-dc22v(x1.vom) dc23.v(x1.vop)-dc23v(x1.vom)
+ dc24.v(x1.vop)-dc24v(x1.vom) dc25.v(x1.vop)-dc25v(x1.vom) dc26.v(x1.vop)-dc26v(x1.vom) dc27.v(x1.vop)-dc27v(x1.vom)
plot dc1.v(x1.vdiff) dc2.v(x1.vdiff) dc3.v(x1.vdiff) dc4.v(x1.vdiff) dc5.v(x1.vdiff) dc6.v(x1.vdiff)
+ dc7.v(x1.vdiff) dc8.v(x1.vdiff) dc9.v(x1.vdiff) dc10.v(x1.vdiff) dc11.v(x1.vdiff) dc12.v(x1.vdiff) dc13.v(x1.vdiff)
+ dc14.v(x1.vdiff) dc15.v(x1.vdiff) dc16.v(x1.vdiff) dc17.v(x1.vdiff) dc18.v(x1.vdiff) dc19.v(x1.vdiff)
+ dc20.v(x1.vdiff) dc21.v(x1.vdiff) dc22.v(x1.vdiff) dc23.v(x1.vdiff) dc24.v(x1.vdiff) dc25.v(x1.vdiff)
+ dc26.v(x1.vdiff) dc27.v(x1.vdiff)
plot dc1.v(x1.test) dc2.v(x1.test) dc3.v(x1.test) dc4.v(x1.test) dc5.v(x1.test) dc6.v(x1.test)
+ dc7.v(x1.test) dc8.v(x1.test) dc9.v(x1.test) dc10.v(x1.test) dc11.v(x1.test) dc12.v(x1.test) dc13.v(x1.test)
+ dc14.v(x1.test) dc15.v(x1.test) dc16.v(x1.test) dc17.v(x1.test) dc18.v(x1.test) dc19.v(x1.test) dc20.v(x1.test)
+ dc21.v(x1.test) dc22.v(x1.test) dc23.v(x1.test) dc24.v(x1.test) dc25.v(x1.test) dc26.v(x1.test) dc27.v(x1.test)
set filetype = ascii
write results.raw input_offset
print vecmax(input_offset)
print vecmin(input_offset)
.endc


**** end user architecture code
**.ends

* expanding   symbol:  comparator_new.sym # of pins=11
** sym_path: /foss/designs/sky130_ak_ip__comparator/xschem/comparator_new.sym
** sch_path: /foss/designs/sky130_ak_ip__comparator/xschem/comparator_new.sch
.subckt comparator_new DVDD AVDD AGND DGND Vinp Vout Vinm en hyst[1] hyst[0] trim[5] trim[4] trim[3]
+ trim[2] trim[1] trim[0] ibias
*.ipin Vinp
*.ipin Vinm
*.ipin AVDD
*.ipin AGND
*.ipin en
*.ipin hyst[1],hyst[0]
*.ipin trim[5],trim[4],trim[3],trim[2],trim[1],trim[0]
*.opin Vout
*.ipin DVDD
*.ipin ibias
*.ipin DGND
XM7 bias_n bias_n AGND AGND sky130_fd_pr__nfet_g5v0d10v5 L=8 W=2 nf=1 ad='int((nf+1)/2) * W/nf * 0.29'
+ as='int((nf+2)/2) * W/nf * 0.29' pd='2*int((nf+1)/2) * (W/nf + 0.29)' ps='2*int((nf+2)/2) * (W/nf + 0.29)'
+ nrd='0.29 / W' nrs='0.29 / W' sa=0 sb=0 sd=0 mult=2 m=2
XM6 net3 Vinm Vxm AGND sky130_fd_pr__nfet_g5v0d10v5 L=1.5 W=8 nf=1 ad='int((nf+1)/2) * W/nf * 0.29' as='int((nf+2)/2) * W/nf * 0.29'
+ pd='2*int((nf+1)/2) * (W/nf + 0.29)' ps='2*int((nf+2)/2) * (W/nf + 0.29)' nrd='0.29 / W' nrs='0.29 / W'
+ sa=0 sb=0 sd=0 mult=64 m=64
XM2 net1 bias_n AGND AGND sky130_fd_pr__nfet_g5v0d10v5 L=8 W=2 nf=1 ad='int((nf+1)/2) * W/nf * 0.29'
+ as='int((nf+2)/2) * W/nf * 0.29' pd='2*int((nf+1)/2) * (W/nf + 0.29)' ps='2*int((nf+2)/2) * (W/nf + 0.29)'
+ nrd='0.29 / W' nrs='0.29 / W' sa=0 sb=0 sd=0 mult=48 m=48
XM1 net2 Vinp Vxm AGND sky130_fd_pr__nfet_g5v0d10v5 L=1.5 W=8 nf=1 ad='int((nf+1)/2) * W/nf * 0.29' as='int((nf+2)/2) * W/nf * 0.29'
+ pd='2*int((nf+1)/2) * (W/nf + 0.29)' ps='2*int((nf+2)/2) * (W/nf + 0.29)' nrd='0.29 / W' nrs='0.29 / W'
+ sa=0 sb=0 sd=0 mult=64 m=64
XM4 net9 bias_var_p AVDD AVDD sky130_fd_pr__pfet_g5v0d10v5 L=8 W=4 nf=1 ad='int((nf+1)/2) * W/nf * 0.29'
+ as='int((nf+2)/2) * W/nf * 0.29' pd='2*int((nf+1)/2) * (W/nf + 0.29)' ps='2*int((nf+2)/2) * (W/nf + 0.29)'
+ nrd='0.29 / W' nrs='0.29 / W' sa=0 sb=0 sd=0 mult=48 m=48
XM5 net5 Vinm Vxp AVDD sky130_fd_pr__pfet_g5v0d10v5 L=1.5 W=8 nf=2 ad='int((nf+1)/2) * W/nf * 0.29' as='int((nf+2)/2) * W/nf * 0.29'
+ pd='2*int((nf+1)/2) * (W/nf + 0.29)' ps='2*int((nf+2)/2) * (W/nf + 0.29)' nrd='0.29 / W' nrs='0.29 / W'
+ sa=0 sb=0 sd=0 mult=64 m=64
XM17 net4 Vinp Vxp AVDD sky130_fd_pr__pfet_g5v0d10v5 L=1.5 W=8 nf=2 ad='int((nf+1)/2) * W/nf * 0.29'
+ as='int((nf+2)/2) * W/nf * 0.29' pd='2*int((nf+1)/2) * (W/nf + 0.29)' ps='2*int((nf+2)/2) * (W/nf + 0.29)'
+ nrd='0.29 / W' nrs='0.29 / W' sa=0 sb=0 sd=0 mult=64 m=64
XM22 net6 bias_p AVDD AVDD sky130_fd_pr__pfet_g5v0d10v5 L=8 W=4 nf=2 ad='int((nf+1)/2) * W/nf * 0.29'
+ as='int((nf+2)/2) * W/nf * 0.29' pd='2*int((nf+1)/2) * (W/nf + 0.29)' ps='2*int((nf+2)/2) * (W/nf + 0.29)'
+ nrd='0.29 / W' nrs='0.29 / W' sa=0 sb=0 sd=0 mult=2 m=2
XM23 Vom_stg2 Vop net6 AVDD sky130_fd_pr__pfet_g5v0d10v5 L=1 W=4 nf=2 ad='int((nf+1)/2) * W/nf * 0.29'
+ as='int((nf+2)/2) * W/nf * 0.29' pd='2*int((nf+1)/2) * (W/nf + 0.29)' ps='2*int((nf+2)/2) * (W/nf + 0.29)'
+ nrd='0.29 / W' nrs='0.29 / W' sa=0 sb=0 sd=0 mult=4 m=4
XM24 Vop_stg2 Vom net6 AVDD sky130_fd_pr__pfet_g5v0d10v5 L=1 W=4 nf=2 ad='int((nf+1)/2) * W/nf * 0.29'
+ as='int((nf+2)/2) * W/nf * 0.29' pd='2*int((nf+1)/2) * (W/nf + 0.29)' ps='2*int((nf+2)/2) * (W/nf + 0.29)'
+ nrd='0.29 / W' nrs='0.29 / W' sa=0 sb=0 sd=0 mult=4 m=4
XM25 Vop_stg2 Vop_stg2 DGND DGND sky130_fd_pr__nfet_g5v0d10v5 L=1 W=2 nf=1 ad='int((nf+1)/2) * W/nf * 0.29'
+ as='int((nf+2)/2) * W/nf * 0.29' pd='2*int((nf+1)/2) * (W/nf + 0.29)' ps='2*int((nf+2)/2) * (W/nf + 0.29)'
+ nrd='0.29 / W' nrs='0.29 / W' sa=0 sb=0 sd=0 mult=2 m=2
XM26 Vom_stg2 Vom_stg2 DGND DGND sky130_fd_pr__nfet_g5v0d10v5 L=1 W=2 nf=1 ad='int((nf+1)/2) * W/nf * 0.29'
+ as='int((nf+2)/2) * W/nf * 0.29' pd='2*int((nf+1)/2) * (W/nf + 0.29)' ps='2*int((nf+2)/2) * (W/nf + 0.29)'
+ nrd='0.29 / W' nrs='0.29 / W' sa=0 sb=0 sd=0 mult=2 m=2
XM27 net7 Vom_stg2 DGND DGND sky130_fd_pr__nfet_g5v0d10v5 L=1 W=2 nf=1 ad='int((nf+1)/2) * W/nf * 0.29'
+ as='int((nf+2)/2) * W/nf * 0.29' pd='2*int((nf+1)/2) * (W/nf + 0.29)' ps='2*int((nf+2)/2) * (W/nf + 0.29)'
+ nrd='0.29 / W' nrs='0.29 / W' sa=0 sb=0 sd=0 mult=2 m=2
XM28 Vdiff Vop_stg2 DGND DGND sky130_fd_pr__nfet_g5v0d10v5 L=1 W=2 nf=1 ad='int((nf+1)/2) * W/nf * 0.29'
+ as='int((nf+2)/2) * W/nf * 0.29' pd='2*int((nf+1)/2) * (W/nf + 0.29)' ps='2*int((nf+2)/2) * (W/nf + 0.29)'
+ nrd='0.29 / W' nrs='0.29 / W' sa=0 sb=0 sd=0 mult=2 m=2
XM29 Vdiff net7 DVDD DVDD sky130_fd_pr__pfet_01v8 L=1 W=4 nf=1 ad='int((nf+1)/2) * W/nf * 0.29' as='int((nf+2)/2) * W/nf * 0.29'
+ pd='2*int((nf+1)/2) * (W/nf + 0.29)' ps='2*int((nf+2)/2) * (W/nf + 0.29)' nrd='0.29 / W' nrs='0.29 / W'
+ sa=0 sb=0 sd=0 mult=2 m=2
XM30 net7 net7 DVDD DVDD sky130_fd_pr__pfet_01v8 L=1 W=4 nf=1 ad='int((nf+1)/2) * W/nf * 0.29' as='int((nf+2)/2) * W/nf * 0.29'
+ pd='2*int((nf+1)/2) * (W/nf + 0.29)' ps='2*int((nf+2)/2) * (W/nf + 0.29)' nrd='0.29 / W' nrs='0.29 / W'
+ sa=0 sb=0 sd=0 mult=2 m=2
XM31 Vout Vdiff DVDD DVDD sky130_fd_pr__pfet_01v8 L=0.15 W=1 nf=2 ad='int((nf+1)/2) * W/nf * 0.29' as='int((nf+2)/2) * W/nf * 0.29'
+ pd='2*int((nf+1)/2) * (W/nf + 0.29)' ps='2*int((nf+2)/2) * (W/nf + 0.29)' nrd='0.29 / W' nrs='0.29 / W'
+ sa=0 sb=0 sd=0 mult=1 m=1
XM44 Vout Vdiff DGND DGND sky130_fd_pr__nfet_01v8 L=0.15 W=0.5 nf=1 ad='int((nf+1)/2) * W/nf * 0.29'
+ as='int((nf+2)/2) * W/nf * 0.29' pd='2*int((nf+1)/2) * (W/nf + 0.29)' ps='2*int((nf+2)/2) * (W/nf + 0.29)'
+ nrd='0.29 / W' nrs='0.29 / W' sa=0 sb=0 sd=0 mult=1 m=1
XM45 ibias ibias bias_n AGND sky130_fd_pr__nfet_g5v0d10v5 L=8 W=1 nf=1 ad='int((nf+1)/2) * W/nf * 0.29'
+ as='int((nf+2)/2) * W/nf * 0.29' pd='2*int((nf+1)/2) * (W/nf + 0.29)' ps='2*int((nf+2)/2) * (W/nf + 0.29)'
+ nrd='0.29 / W' nrs='0.29 / W' sa=0 sb=0 sd=0 mult=1 m=1
XM48 bias_n enb_hv AGND AGND sky130_fd_pr__nfet_g5v0d10v5 L=0.5 W=4 nf=1 ad='int((nf+1)/2) * W/nf * 0.29'
+ as='int((nf+2)/2) * W/nf * 0.29' pd='2*int((nf+1)/2) * (W/nf + 0.29)' ps='2*int((nf+2)/2) * (W/nf + 0.29)'
+ nrd='0.29 / W' nrs='0.29 / W' sa=0 sb=0 sd=0 mult=4 m=4
XM40 net16 bias_hyst net10 AGND sky130_fd_pr__nfet_g5v0d10v5 L=8 W=2 nf=1 ad='int((nf+1)/2) * W/nf * 0.29'
+ as='int((nf+2)/2) * W/nf * 0.29' pd='2*int((nf+1)/2) * (W/nf + 0.29)' ps='2*int((nf+2)/2) * (W/nf + 0.29)'
+ nrd='0.29 / W' nrs='0.29 / W' sa=0 sb=0 sd=0 mult=3 m=3
XM53 Vfold_p DVDD net33 AGND sky130_fd_pr__nfet_g5v0d10v5 L=1 W=2 nf=1 ad='int((nf+1)/2) * W/nf * 0.29'
+ as='int((nf+2)/2) * W/nf * 0.29' pd='2*int((nf+1)/2) * (W/nf + 0.29)' ps='2*int((nf+2)/2) * (W/nf + 0.29)'
+ nrd='0.29 / W' nrs='0.29 / W' sa=0 sb=0 sd=0 mult=4 m=4
XM54 Vfold_m DGND net33 AGND sky130_fd_pr__nfet_g5v0d10v5 L=1 W=2 nf=1 ad='int((nf+1)/2) * W/nf * 0.29'
+ as='int((nf+2)/2) * W/nf * 0.29' pd='2*int((nf+1)/2) * (W/nf + 0.29)' ps='2*int((nf+2)/2) * (W/nf + 0.29)'
+ nrd='0.29 / W' nrs='0.29 / W' sa=0 sb=0 sd=0 mult=4 m=4
XM73 net17 bias_hyst net32 AGND sky130_fd_pr__nfet_g5v0d10v5 L=8 W=2 nf=1 ad='int((nf+1)/2) * W/nf * 0.29'
+ as='int((nf+2)/2) * W/nf * 0.29' pd='2*int((nf+1)/2) * (W/nf + 0.29)' ps='2*int((nf+2)/2) * (W/nf + 0.29)'
+ nrd='0.29 / W' nrs='0.29 / W' sa=0 sb=0 sd=0 mult=1 m=1
XM75 Voutb Vout DVDD DVDD sky130_fd_pr__pfet_01v8 L=0.15 W=1 nf=2 ad='int((nf+1)/2) * W/nf * 0.29' as='int((nf+2)/2) * W/nf * 0.29'
+ pd='2*int((nf+1)/2) * (W/nf + 0.29)' ps='2*int((nf+2)/2) * (W/nf + 0.29)' nrd='0.29 / W' nrs='0.29 / W'
+ sa=0 sb=0 sd=0 mult=1 m=1
XM76 Voutb Vout DGND DGND sky130_fd_pr__nfet_01v8 L=0.15 W=0.5 nf=1 ad='int((nf+1)/2) * W/nf * 0.29'
+ as='int((nf+2)/2) * W/nf * 0.29' pd='2*int((nf+1)/2) * (W/nf + 0.29)' ps='2*int((nf+2)/2) * (W/nf + 0.29)'
+ nrd='0.29 / W' nrs='0.29 / W' sa=0 sb=0 sd=0 mult=1 m=1
XM77 net8 bias_p AVDD AVDD sky130_fd_pr__pfet_g5v0d10v5 L=8 W=4 nf=1 ad='int((nf+1)/2) * W/nf * 0.29'
+ as='int((nf+2)/2) * W/nf * 0.29' pd='2*int((nf+1)/2) * (W/nf + 0.29)' ps='2*int((nf+2)/2) * (W/nf + 0.29)'
+ nrd='0.29 / W' nrs='0.29 / W' sa=0 sb=0 sd=0 mult=1 m=1
XM78 bias_hyst bias_hyst AGND AGND sky130_fd_pr__nfet_g5v0d10v5 L=8 W=2 nf=1 ad='int((nf+1)/2) * W/nf * 0.29'
+ as='int((nf+2)/2) * W/nf * 0.29' pd='2*int((nf+1)/2) * (W/nf + 0.29)' ps='2*int((nf+2)/2) * (W/nf + 0.29)'
+ nrd='0.29 / W' nrs='0.29 / W' sa=0 sb=0 sd=0 mult=2 m=2
XM79 bias_hyst casc_p net8 AVDD sky130_fd_pr__pfet_g5v0d10v5 L=1 W=4 nf=1 ad='int((nf+1)/2) * W/nf * 0.29'
+ as='int((nf+2)/2) * W/nf * 0.29' pd='2*int((nf+1)/2) * (W/nf + 0.29)' ps='2*int((nf+2)/2) * (W/nf + 0.29)'
+ nrd='0.29 / W' nrs='0.29 / W' sa=0 sb=0 sd=0 mult=1 m=1
XM90 Vxm casc_n net1 AGND sky130_fd_pr__nfet_g5v0d10v5 L=1 W=2 nf=1 ad='int((nf+1)/2) * W/nf * 0.29'
+ as='int((nf+2)/2) * W/nf * 0.29' pd='2*int((nf+1)/2) * (W/nf + 0.29)' ps='2*int((nf+2)/2) * (W/nf + 0.29)'
+ nrd='0.29 / W' nrs='0.29 / W' sa=0 sb=0 sd=0 mult=48 m=48
XM91 Vxp casc_p net9 AVDD sky130_fd_pr__pfet_g5v0d10v5 L=1 W=4 nf=1 ad='int((nf+1)/2) * W/nf * 0.29'
+ as='int((nf+2)/2) * W/nf * 0.29' pd='2*int((nf+1)/2) * (W/nf + 0.29)' ps='2*int((nf+2)/2) * (W/nf + 0.29)'
+ nrd='0.29 / W' nrs='0.29 / W' sa=0 sb=0 sd=0 mult=48 m=48
XM94 net15 bias_n AGND AGND sky130_fd_pr__nfet_g5v0d10v5 L=8 W=2 nf=1 ad='int((nf+1)/2) * W/nf * 0.29'
+ as='int((nf+2)/2) * W/nf * 0.29' pd='2*int((nf+1)/2) * (W/nf + 0.29)' ps='2*int((nf+2)/2) * (W/nf + 0.29)'
+ nrd='0.29 / W' nrs='0.29 / W' sa=0 sb=0 sd=0 mult=2 m=2
XM95 bias_p bias_p AVDD AVDD sky130_fd_pr__pfet_g5v0d10v5 L=8 W=4 nf=1 ad='int((nf+1)/2) * W/nf * 0.29'
+ as='int((nf+2)/2) * W/nf * 0.29' pd='2*int((nf+1)/2) * (W/nf + 0.29)' ps='2*int((nf+2)/2) * (W/nf + 0.29)'
+ nrd='0.29 / W' nrs='0.29 / W' sa=0 sb=0 sd=0 mult=2 m=2
XM16 net10 hyst1_hv AGND AGND sky130_fd_pr__nfet_g5v0d10v5 L=0.5 W=2 nf=1 ad='int((nf+1)/2) * W/nf * 0.29'
+ as='int((nf+2)/2) * W/nf * 0.29' pd='2*int((nf+1)/2) * (W/nf + 0.29)' ps='2*int((nf+2)/2) * (W/nf + 0.29)'
+ nrd='0.29 / W' nrs='0.29 / W' sa=0 sb=0 sd=0 mult=3 m=3
XM33 net32 hyst0_hv AGND AGND sky130_fd_pr__nfet_g5v0d10v5 L=0.5 W=2 nf=1 ad='int((nf+1)/2) * W/nf * 0.29'
+ as='int((nf+2)/2) * W/nf * 0.29' pd='2*int((nf+1)/2) * (W/nf + 0.29)' ps='2*int((nf+2)/2) * (W/nf + 0.29)'
+ nrd='0.29 / W' nrs='0.29 / W' sa=0 sb=0 sd=0 mult=1 m=1
XM67 Vop_stg2 Vom_stg2 DGND DGND sky130_fd_pr__nfet_g5v0d10v5 L=0.5 W=1 nf=1 ad='int((nf+1)/2) * W/nf * 0.29'
+ as='int((nf+2)/2) * W/nf * 0.29' pd='2*int((nf+1)/2) * (W/nf + 0.29)' ps='2*int((nf+2)/2) * (W/nf + 0.29)'
+ nrd='0.29 / W' nrs='0.29 / W' sa=0 sb=0 sd=0 mult=1 m=1
XM69 Vom_stg2 Vop_stg2 DGND DGND sky130_fd_pr__nfet_g5v0d10v5 L=0.5 W=1 nf=1 ad='int((nf+1)/2) * W/nf * 0.29'
+ as='int((nf+2)/2) * W/nf * 0.29' pd='2*int((nf+1)/2) * (W/nf + 0.29)' ps='2*int((nf+2)/2) * (W/nf + 0.29)'
+ nrd='0.29 / W' nrs='0.29 / W' sa=0 sb=0 sd=0 mult=1 m=1
XM15 bias_p en_hv AVDD AVDD sky130_fd_pr__pfet_g5v0d10v5 L=0.5 W=4 nf=2 ad='int((nf+1)/2) * W/nf * 0.29'
+ as='int((nf+2)/2) * W/nf * 0.29' pd='2*int((nf+1)/2) * (W/nf + 0.29)' ps='2*int((nf+2)/2) * (W/nf + 0.29)'
+ nrd='0.29 / W' nrs='0.29 / W' sa=0 sb=0 sd=0 mult=4 m=4
x2 AVDD DVDD DGND trim2b_hv trim2_hv trim[2] AGND level_shifter_up
x4 AVDD DVDD DGND trim1b_hv trim1_hv trim[1] AGND level_shifter_up
x5 AVDD DVDD DGND trim0b_hv trim0_hv trim[0] AGND level_shifter_up
x6 AVDD DVDD DGND enb_hv en_hv en AGND level_shifter_up
x7 AVDD DVDD DGND hyst1b_hv hyst1_hv hyst[1] AGND level_shifter_up
x8 AVDD DVDD DGND hyst0b_hv hyst0_hv hyst[0] AGND level_shifter_up
XM32 Vdiff enb_hv DGND DGND sky130_fd_pr__nfet_g5v0d10v5 L=0.5 W=2 nf=1 ad='int((nf+1)/2) * W/nf * 0.29'
+ as='int((nf+2)/2) * W/nf * 0.29' pd='2*int((nf+1)/2) * (W/nf + 0.29)' ps='2*int((nf+2)/2) * (W/nf + 0.29)'
+ nrd='0.29 / W' nrs='0.29 / W' sa=0 sb=0 sd=0 mult=4 m=4
XM34 casc_n bias_n AGND AGND sky130_fd_pr__nfet_g5v0d10v5 L=8 W=2 nf=1 ad='int((nf+1)/2) * W/nf * 0.29'
+ as='int((nf+2)/2) * W/nf * 0.29' pd='2*int((nf+1)/2) * (W/nf + 0.29)' ps='2*int((nf+2)/2) * (W/nf + 0.29)'
+ nrd='0.29 / W' nrs='0.29 / W' sa=0 sb=0 sd=0 mult=1 m=1
XM36 AVDD ibias casc_n AGND sky130_fd_pr__nfet_g5v0d10v5 L=1 W=2 nf=1 ad='int((nf+1)/2) * W/nf * 0.29'
+ as='int((nf+2)/2) * W/nf * 0.29' pd='2*int((nf+1)/2) * (W/nf + 0.29)' ps='2*int((nf+2)/2) * (W/nf + 0.29)'
+ nrd='0.29 / W' nrs='0.29 / W' sa=0 sb=0 sd=0 mult=1 m=1
XM3 Vfold_bot_p Vom AGND AGND sky130_fd_pr__nfet_g5v0d10v5 L=8 W=2 nf=1 ad='int((nf+1)/2) * W/nf * 0.29'
+ as='int((nf+2)/2) * W/nf * 0.29' pd='2*int((nf+1)/2) * (W/nf + 0.29)' ps='2*int((nf+2)/2) * (W/nf + 0.29)'
+ nrd='0.29 / W' nrs='0.29 / W' sa=0 sb=0 sd=0 mult=8 m=8
XM9 Vfold_p bias_p AVDD AVDD sky130_fd_pr__pfet_g5v0d10v5 L=8 W=4 nf=1 ad='int((nf+1)/2) * W/nf * 0.29'
+ as='int((nf+2)/2) * W/nf * 0.29' pd='2*int((nf+1)/2) * (W/nf + 0.29)' ps='2*int((nf+2)/2) * (W/nf + 0.29)'
+ nrd='0.29 / W' nrs='0.29 / W' sa=0 sb=0 sd=0 mult=8 m=8
XM10 Vfold_p bias_var_p2 AVDD AVDD sky130_fd_pr__pfet_g5v0d10v5 L=8 W=4 nf=1 ad='int((nf+1)/2) * W/nf * 0.29'
+ as='int((nf+2)/2) * W/nf * 0.29' pd='2*int((nf+1)/2) * (W/nf + 0.29)' ps='2*int((nf+2)/2) * (W/nf + 0.29)'
+ nrd='0.29 / W' nrs='0.29 / W' sa=0 sb=0 sd=0 mult=27 m=27
XM13 Vfold_bot_p bias_var_n AGND AGND sky130_fd_pr__nfet_g5v0d10v5 L=8 W=2 nf=1 ad='int((nf+1)/2) * W/nf * 0.29'
+ as='int((nf+2)/2) * W/nf * 0.29' pd='2*int((nf+1)/2) * (W/nf + 0.29)' ps='2*int((nf+2)/2) * (W/nf + 0.29)'
+ nrd='0.29 / W' nrs='0.29 / W' sa=0 sb=0 sd=0 mult=27 m=27
XM19 Vop casc_p Vfold_p AVDD sky130_fd_pr__pfet_g5v0d10v5 L=1 W=4 nf=1 ad='int((nf+1)/2) * W/nf * 0.29'
+ as='int((nf+2)/2) * W/nf * 0.29' pd='2*int((nf+1)/2) * (W/nf + 0.29)' ps='2*int((nf+2)/2) * (W/nf + 0.29)'
+ nrd='0.29 / W' nrs='0.29 / W' sa=0 sb=0 sd=0 mult=32 m=32
XM21 Vop casc_n Vfold_bot_p AGND sky130_fd_pr__nfet_g5v0d10v5 L=1 W=2 nf=1 ad='int((nf+1)/2) * W/nf * 0.29'
+ as='int((nf+2)/2) * W/nf * 0.29' pd='2*int((nf+1)/2) * (W/nf + 0.29)' ps='2*int((nf+2)/2) * (W/nf + 0.29)'
+ nrd='0.29 / W' nrs='0.29 / W' sa=0 sb=0 sd=0 mult=32 m=32
XM38 net12 Vinm net11 AGND sky130_fd_pr__nfet_g5v0d10v5 L=1 W=10 nf=1 ad='int((nf+1)/2) * W/nf * 0.29'
+ as='int((nf+2)/2) * W/nf * 0.29' pd='2*int((nf+1)/2) * (W/nf + 0.29)' ps='2*int((nf+2)/2) * (W/nf + 0.29)'
+ nrd='0.29 / W' nrs='0.29 / W' sa=0 sb=0 sd=0 mult=1 m=1
XM39 net12 Vinp net11 AGND sky130_fd_pr__nfet_g5v0d10v5 L=1 W=10 nf=1 ad='int((nf+1)/2) * W/nf * 0.29'
+ as='int((nf+2)/2) * W/nf * 0.29' pd='2*int((nf+1)/2) * (W/nf + 0.29)' ps='2*int((nf+2)/2) * (W/nf + 0.29)'
+ nrd='0.29 / W' nrs='0.29 / W' sa=0 sb=0 sd=0 mult=1 m=1
XM49 net12 bias_var_p2 AVDD AVDD sky130_fd_pr__pfet_g5v0d10v5 L=8 W=4 nf=1 ad='int((nf+1)/2) * W/nf * 0.29'
+ as='int((nf+2)/2) * W/nf * 0.29' pd='2*int((nf+1)/2) * (W/nf + 0.29)' ps='2*int((nf+2)/2) * (W/nf + 0.29)'
+ nrd='0.29 / W' nrs='0.29 / W' sa=0 sb=0 sd=0 mult=1 m=1
XM60 net14 bias_var_p2 AVDD AVDD sky130_fd_pr__pfet_g5v0d10v5 L=8 W=4 nf=1 ad='int((nf+1)/2) * W/nf * 0.29'
+ as='int((nf+2)/2) * W/nf * 0.29' pd='2*int((nf+1)/2) * (W/nf + 0.29)' ps='2*int((nf+2)/2) * (W/nf + 0.29)'
+ nrd='0.29 / W' nrs='0.29 / W' sa=0 sb=0 sd=0 mult=1 m=1
XM61 net13 bias_n AGND AGND sky130_fd_pr__nfet_g5v0d10v5 L=8 W=2 nf=1 ad='int((nf+1)/2) * W/nf * 0.29'
+ as='int((nf+2)/2) * W/nf * 0.29' pd='2*int((nf+1)/2) * (W/nf + 0.29)' ps='2*int((nf+2)/2) * (W/nf + 0.29)'
+ nrd='0.29 / W' nrs='0.29 / W' sa=0 sb=0 sd=0 mult=1 m=1
XM62 bias_var_p bias_var_p AVDD AVDD sky130_fd_pr__pfet_g5v0d10v5 L=8 W=4 nf=1 ad='int((nf+1)/2) * W/nf * 0.29'
+ as='int((nf+2)/2) * W/nf * 0.29' pd='2*int((nf+1)/2) * (W/nf + 0.29)' ps='2*int((nf+2)/2) * (W/nf + 0.29)'
+ nrd='0.29 / W' nrs='0.29 / W' sa=0 sb=0 sd=0 mult=1 m=1
XM68 net62 bias_var_p AVDD AVDD sky130_fd_pr__pfet_g5v0d10v5 L=8 W=4 nf=1 ad='int((nf+1)/2) * W/nf * 0.29'
+ as='int((nf+2)/2) * W/nf * 0.29' pd='2*int((nf+1)/2) * (W/nf + 0.29)' ps='2*int((nf+2)/2) * (W/nf + 0.29)'
+ nrd='0.29 / W' nrs='0.29 / W' sa=0 sb=0 sd=0 mult=1 m=1
XM70 bias_var_n bias_var_n AGND AGND sky130_fd_pr__nfet_g5v0d10v5 L=8 W=2 nf=1 ad='int((nf+1)/2) * W/nf * 0.29'
+ as='int((nf+2)/2) * W/nf * 0.29' pd='2*int((nf+1)/2) * (W/nf + 0.29)' ps='2*int((nf+2)/2) * (W/nf + 0.29)'
+ nrd='0.29 / W' nrs='0.29 / W' sa=0 sb=0 sd=0 mult=1 m=1
XM8 Vfold_bot_m bias_var_n AGND AGND sky130_fd_pr__nfet_g5v0d10v5 L=8 W=2 nf=1 ad='int((nf+1)/2) * W/nf * 0.29'
+ as='int((nf+2)/2) * W/nf * 0.29' pd='2*int((nf+1)/2) * (W/nf + 0.29)' ps='2*int((nf+2)/2) * (W/nf + 0.29)'
+ nrd='0.29 / W' nrs='0.29 / W' sa=0 sb=0 sd=0 mult=27 m=27
XM11 Vfold_m bias_var_p2 AVDD AVDD sky130_fd_pr__pfet_g5v0d10v5 L=8 W=4 nf=1 ad='int((nf+1)/2) * W/nf * 0.29'
+ as='int((nf+2)/2) * W/nf * 0.29' pd='2*int((nf+1)/2) * (W/nf + 0.29)' ps='2*int((nf+2)/2) * (W/nf + 0.29)'
+ nrd='0.29 / W' nrs='0.29 / W' sa=0 sb=0 sd=0 mult=27 m=27
XM12 Vfold_m bias_p AVDD AVDD sky130_fd_pr__pfet_g5v0d10v5 L=8 W=4 nf=1 ad='int((nf+1)/2) * W/nf * 0.29'
+ as='int((nf+2)/2) * W/nf * 0.29' pd='2*int((nf+1)/2) * (W/nf + 0.29)' ps='2*int((nf+2)/2) * (W/nf + 0.29)'
+ nrd='0.29 / W' nrs='0.29 / W' sa=0 sb=0 sd=0 mult=8 m=8
XM14 Vfold_bot_m Vom AGND AGND sky130_fd_pr__nfet_g5v0d10v5 L=8 W=2 nf=1 ad='int((nf+1)/2) * W/nf * 0.29'
+ as='int((nf+2)/2) * W/nf * 0.29' pd='2*int((nf+1)/2) * (W/nf + 0.29)' ps='2*int((nf+2)/2) * (W/nf + 0.29)'
+ nrd='0.29 / W' nrs='0.29 / W' sa=0 sb=0 sd=0 mult=8 m=8
XM18 Vom casc_p Vfold_m AVDD sky130_fd_pr__pfet_g5v0d10v5 L=1 W=4 nf=1 ad='int((nf+1)/2) * W/nf * 0.29'
+ as='int((nf+2)/2) * W/nf * 0.29' pd='2*int((nf+1)/2) * (W/nf + 0.29)' ps='2*int((nf+2)/2) * (W/nf + 0.29)'
+ nrd='0.29 / W' nrs='0.29 / W' sa=0 sb=0 sd=0 mult=32 m=32
XM20 Vom casc_n Vfold_bot_m AGND sky130_fd_pr__nfet_g5v0d10v5 L=1 W=2 nf=1 ad='int((nf+1)/2) * W/nf * 0.29'
+ as='int((nf+2)/2) * W/nf * 0.29' pd='2*int((nf+1)/2) * (W/nf + 0.29)' ps='2*int((nf+2)/2) * (W/nf + 0.29)'
+ nrd='0.29 / W' nrs='0.29 / W' sa=0 sb=0 sd=0 mult=32 m=32
XM84 bias_var_p casc_n net13 AGND sky130_fd_pr__nfet_g5v0d10v5 L=1 W=2 nf=1 ad='int((nf+1)/2) * W/nf * 0.29'
+ as='int((nf+2)/2) * W/nf * 0.29' pd='2*int((nf+1)/2) * (W/nf + 0.29)' ps='2*int((nf+2)/2) * (W/nf + 0.29)'
+ nrd='0.29 / W' nrs='0.29 / W' sa=0 sb=0 sd=0 mult=1 m=1
XM85 bias_var_p casc_p net14 AVDD sky130_fd_pr__pfet_g5v0d10v5 L=1 W=4 nf=1 ad='int((nf+1)/2) * W/nf * 0.29'
+ as='int((nf+2)/2) * W/nf * 0.29' pd='2*int((nf+1)/2) * (W/nf + 0.29)' ps='2*int((nf+2)/2) * (W/nf + 0.29)'
+ nrd='0.29 / W' nrs='0.29 / W' sa=0 sb=0 sd=0 mult=1 m=1
XM86 bias_p casc_n net15 AGND sky130_fd_pr__nfet_g5v0d10v5 L=1 W=2 nf=1 ad='int((nf+1)/2) * W/nf * 0.29'
+ as='int((nf+2)/2) * W/nf * 0.29' pd='2*int((nf+1)/2) * (W/nf + 0.29)' ps='2*int((nf+2)/2) * (W/nf + 0.29)'
+ nrd='0.29 / W' nrs='0.29 / W' sa=0 sb=0 sd=0 mult=2 m=2
XM88 net33 casc_n net16 AGND sky130_fd_pr__nfet_g5v0d10v5 L=1 W=2 nf=1 ad='int((nf+1)/2) * W/nf * 0.29'
+ as='int((nf+2)/2) * W/nf * 0.29' pd='2*int((nf+1)/2) * (W/nf + 0.29)' ps='2*int((nf+2)/2) * (W/nf + 0.29)'
+ nrd='0.29 / W' nrs='0.29 / W' sa=0 sb=0 sd=0 mult=3 m=3
XM89 Vfold_m net47 net39 AGND sky130_fd_pr__nfet_g5v0d10v5 L=1.5 W=8 nf=1 ad='int((nf+1)/2) * W/nf * 0.29'
+ as='int((nf+2)/2) * W/nf * 0.29' pd='2*int((nf+1)/2) * (W/nf + 0.29)' ps='2*int((nf+2)/2) * (W/nf + 0.29)'
+ nrd='0.29 / W' nrs='0.29 / W' sa=0 sb=0 sd=0 mult=8 m=8
XM92 net18 bias_var_n2 AGND AGND sky130_fd_pr__nfet_g5v0d10v5 L=8 W=2 nf=1 ad='int((nf+1)/2) * W/nf * 0.29'
+ as='int((nf+2)/2) * W/nf * 0.29' pd='2*int((nf+1)/2) * (W/nf + 0.29)' ps='2*int((nf+2)/2) * (W/nf + 0.29)'
+ nrd='0.29 / W' nrs='0.29 / W' sa=0 sb=0 sd=0 mult=6 m=6
XM93 Vfold_p net46 net39 AGND sky130_fd_pr__nfet_g5v0d10v5 L=1.5 W=8 nf=1 ad='int((nf+1)/2) * W/nf * 0.29'
+ as='int((nf+2)/2) * W/nf * 0.29' pd='2*int((nf+1)/2) * (W/nf + 0.29)' ps='2*int((nf+2)/2) * (W/nf + 0.29)'
+ nrd='0.29 / W' nrs='0.29 / W' sa=0 sb=0 sd=0 mult=8 m=8
XM97 net39 casc_n net18 AGND sky130_fd_pr__nfet_g5v0d10v5 L=1 W=2 nf=1 ad='int((nf+1)/2) * W/nf * 0.29'
+ as='int((nf+2)/2) * W/nf * 0.29' pd='2*int((nf+1)/2) * (W/nf + 0.29)' ps='2*int((nf+2)/2) * (W/nf + 0.29)'
+ nrd='0.29 / W' nrs='0.29 / W' sa=0 sb=0 sd=0 mult=6 m=6
x1 AVDD DVDD DGND trim3b_hv trim3_hv trim[3] AGND level_shifter_up
XM63 net29 bias_n net25 AGND sky130_fd_pr__nfet_g5v0d10v5 L=8 W=0.5 nf=1 ad='int((nf+1)/2) * W/nf * 0.29'
+ as='int((nf+2)/2) * W/nf * 0.29' pd='2*int((nf+1)/2) * (W/nf + 0.29)' ps='2*int((nf+2)/2) * (W/nf + 0.29)'
+ nrd='0.29 / W' nrs='0.29 / W' sa=0 sb=0 sd=0 mult=1 m=1
XM99 net19 net20 AVDD AVDD sky130_fd_pr__pfet_g5v0d10v5 L=8 W=4 nf=1 ad='int((nf+1)/2) * W/nf * 0.29'
+ as='int((nf+2)/2) * W/nf * 0.29' pd='2*int((nf+1)/2) * (W/nf + 0.29)' ps='2*int((nf+2)/2) * (W/nf + 0.29)'
+ nrd='0.29 / W' nrs='0.29 / W' sa=0 sb=0 sd=0 mult=1 m=1
XM101 net21 bias_n AGND AGND sky130_fd_pr__nfet_g5v0d10v5 L=8 W=2 nf=1 ad='int((nf+1)/2) * W/nf * 0.29'
+ as='int((nf+2)/2) * W/nf * 0.29' pd='2*int((nf+1)/2) * (W/nf + 0.29)' ps='2*int((nf+2)/2) * (W/nf + 0.29)'
+ nrd='0.29 / W' nrs='0.29 / W' sa=0 sb=0 sd=0 mult=2 m=2
XM102 net20 net20 net19 AVDD sky130_fd_pr__pfet_g5v0d10v5 L=1 W=4 nf=1 ad='int((nf+1)/2) * W/nf * 0.29'
+ as='int((nf+2)/2) * W/nf * 0.29' pd='2*int((nf+1)/2) * (W/nf + 0.29)' ps='2*int((nf+2)/2) * (W/nf + 0.29)'
+ nrd='0.29 / W' nrs='0.29 / W' sa=0 sb=0 sd=0 mult=2 m=2
XM103 casc_p casc_p net19 AVDD sky130_fd_pr__pfet_g5v0d10v5 L=8 W=4 nf=1 ad='int((nf+1)/2) * W/nf * 0.29'
+ as='int((nf+2)/2) * W/nf * 0.29' pd='2*int((nf+1)/2) * (W/nf + 0.29)' ps='2*int((nf+2)/2) * (W/nf + 0.29)'
+ nrd='0.29 / W' nrs='0.29 / W' sa=0 sb=0 sd=0 mult=2 m=2
XM104 casc_p casc_n net21 AGND sky130_fd_pr__nfet_g5v0d10v5 L=1 W=2 nf=1 ad='int((nf+1)/2) * W/nf * 0.29'
+ as='int((nf+2)/2) * W/nf * 0.29' pd='2*int((nf+1)/2) * (W/nf + 0.29)' ps='2*int((nf+2)/2) * (W/nf + 0.29)'
+ nrd='0.29 / W' nrs='0.29 / W' sa=0 sb=0 sd=0 mult=2 m=2
XM105 net20 casc_n net28 AGND sky130_fd_pr__nfet_g5v0d10v5 L=1 W=0.5 nf=1 ad='int((nf+1)/2) * W/nf * 0.29'
+ as='int((nf+2)/2) * W/nf * 0.29' pd='2*int((nf+1)/2) * (W/nf + 0.29)' ps='2*int((nf+2)/2) * (W/nf + 0.29)'
+ nrd='0.29 / W' nrs='0.29 / W' sa=0 sb=0 sd=0 mult=1 m=1
XM106 net22 bias_n AGND AGND sky130_fd_pr__nfet_g5v0d10v5 L=8 W=2 nf=1 ad='int((nf+1)/2) * W/nf * 0.29'
+ as='int((nf+2)/2) * W/nf * 0.29' pd='2*int((nf+1)/2) * (W/nf + 0.29)' ps='2*int((nf+2)/2) * (W/nf + 0.29)'
+ nrd='0.29 / W' nrs='0.29 / W' sa=0 sb=0 sd=0 mult=1 m=1
XM107 net11 casc_n net22 AGND sky130_fd_pr__nfet_g5v0d10v5 L=1 W=2 nf=1 ad='int((nf+1)/2) * W/nf * 0.29'
+ as='int((nf+2)/2) * W/nf * 0.29' pd='2*int((nf+1)/2) * (W/nf + 0.29)' ps='2*int((nf+2)/2) * (W/nf + 0.29)'
+ nrd='0.29 / W' nrs='0.29 / W' sa=0 sb=0 sd=0 mult=1 m=1
XM96 net23 bias_n net30 AGND sky130_fd_pr__nfet_g5v0d10v5 L=8 W=0.5 nf=1 ad='int((nf+1)/2) * W/nf * 0.29'
+ as='int((nf+2)/2) * W/nf * 0.29' pd='2*int((nf+1)/2) * (W/nf + 0.29)' ps='2*int((nf+2)/2) * (W/nf + 0.29)'
+ nrd='0.29 / W' nrs='0.29 / W' sa=0 sb=0 sd=0 mult=1 m=1
XM108 net31 casc_n net23 AGND sky130_fd_pr__nfet_g5v0d10v5 L=1 W=0.5 nf=1 ad='int((nf+1)/2) * W/nf * 0.29'
+ as='int((nf+2)/2) * W/nf * 0.29' pd='2*int((nf+1)/2) * (W/nf + 0.29)' ps='2*int((nf+2)/2) * (W/nf + 0.29)'
+ nrd='0.29 / W' nrs='0.29 / W' sa=0 sb=0 sd=0 mult=1 m=1
XM109 bias_var_p2 casc_p net12 AVDD sky130_fd_pr__pfet_g5v0d10v5 L=1 W=4 nf=1 ad='int((nf+1)/2) * W/nf * 0.29'
+ as='int((nf+2)/2) * W/nf * 0.29' pd='2*int((nf+1)/2) * (W/nf + 0.29)' ps='2*int((nf+2)/2) * (W/nf + 0.29)'
+ nrd='0.29 / W' nrs='0.29 / W' sa=0 sb=0 sd=0 mult=1 m=1
XM110 net27 casc_n net24 AGND sky130_fd_pr__nfet_g5v0d10v5 L=1 W=0.5 nf=1 ad='int((nf+1)/2) * W/nf * 0.29'
+ as='int((nf+2)/2) * W/nf * 0.29' pd='2*int((nf+1)/2) * (W/nf + 0.29)' ps='2*int((nf+2)/2) * (W/nf + 0.29)'
+ nrd='0.29 / W' nrs='0.29 / W' sa=0 sb=0 sd=0 mult=1 m=1
XM111 net24 bias_n net26 AGND sky130_fd_pr__nfet_g5v0d10v5 L=8 W=0.5 nf=1 ad='int((nf+1)/2) * W/nf * 0.29'
+ as='int((nf+2)/2) * W/nf * 0.29' pd='2*int((nf+1)/2) * (W/nf + 0.29)' ps='2*int((nf+2)/2) * (W/nf + 0.29)'
+ nrd='0.29 / W' nrs='0.29 / W' sa=0 sb=0 sd=0 mult=1 m=1
XM57 net25 bias_n AGND AGND sky130_fd_pr__nfet_g5v0d10v5 L=8 W=0.5 nf=1 ad='int((nf+1)/2) * W/nf * 0.29'
+ as='int((nf+2)/2) * W/nf * 0.29' pd='2*int((nf+1)/2) * (W/nf + 0.29)' ps='2*int((nf+2)/2) * (W/nf + 0.29)'
+ nrd='0.29 / W' nrs='0.29 / W' sa=0 sb=0 sd=0 mult=1 m=1
XM58 net26 bias_n AGND AGND sky130_fd_pr__nfet_g5v0d10v5 L=8 W=0.5 nf=1 ad='int((nf+1)/2) * W/nf * 0.29'