** sch_path: /foss/designs/sky130_ak_ip__comparator/xschem/tb_comparator_bandwidth.sch
**.subckt tb_comparator_bandwidth
Vtrim3 trim[3] GND 0
.save i(vtrim3)
VDD_ANA net1 GND 5
.save i(vdd_ana)
VDD_DIG net2 GND 1.8
.save i(vdd_dig)
Ibias GND bias 400n
C3 Vout GND 1p m=1
Vtrim2 trim[2] GND 0
.save i(vtrim2)
Vtrim1 trim[1] GND 0
.save i(vtrim1)
Vtrim0 trim[0] GND 0
.save i(vtrim0)
Vhyst1 hyst[1] GND 0
.save i(vhyst1)
Vhyst0 hyst[0] GND 0
.save i(vhyst0)
Venable enable GND 1.8
.save i(venable)
Vmeas_AVDD net1 AVDD 0
.save i(vmeas_avdd)
Vmeas_DVDD net2 DVDD 0
.save i(vmeas_dvdd)
Vcm Vcm GND 3
.save i(vcm)
Vin Vin_diff GND sin(0 100m 20k)
.save i(vin)
E2 Vinp Vcm Vin_diff GND 0.5
E3 Vinm Vcm Vin_diff GND -0.5
x1 DVDD AVDD GND GND Vinp Vout Vinm enable hyst[1] hyst[0] trim[3] trim[2] trim[1] trim[0] bias
+ comparator_new
**** begin user architecture code

.param mc_mm_switch=0
.param mc_pr_switch=0
.include /foss/pdks/sky130A/libs.tech/ngspice/corners/tt.spice
.include /foss/pdks/sky130A/libs.tech/ngspice/r+c/res_typical__cap_typical.spice
.include /foss/pdks/sky130A/libs.tech/ngspice/r+c/res_typical__cap_typical__lin.spice
.include /foss/pdks/sky130A/libs.tech/ngspice/corners/tt/specialized_cells.spice



*.save v(vout) i(e3)
.save all
.tran 10n 100u
.control
let num_meas = 27
let idd_ana = unitvec(num_meas)
let idd_dig = unitvec(num_meas)
let cap_in = unitvec(num_meas)
let i = 0
foreach temp_val -40 27 85
   set temp=$temp_val
   foreach vdd_ana_val 2.95 3.3 5.5
      alter VDD_ANA $vdd_ana_val
      foreach vcm_val 0.1 {$vdd_ana_val/2} {-0.1+$vdd_ana_val}
         alter Vcm $vcm_val
         foreach ibias_val 400n
            alter ibias $ibias_val
            run
            meas tran idd_ana_meas avg i(vmeas_avdd)
            meas tran idd_dig_meas avg i(vmeas_dvdd)
            let idd_ana[i] = idd_ana_meas
            let idd_dig[i] = idd_dig_meas
            let i = i+1
         end
      end
   end
end
plot tran1.v(vout) tran2.v(vout) tran3.v(vout) tran4.v(vout) tran5.v(vout) tran6.v(vout)
+ tran7.v(vout) tran8.v(vout) tran9.v(vout) tran10.v(vout) tran11.v(vout) tran12.v(vout) tran13.v(vout)
+ tran14.v(vout) tran15.v(vout) tran16.v(vout) tran17.v(vout) tran18.v(vout)
*plot tran1.i(vmeas_avdd) tran2.i(vmeas_avdd) tran3.i(vmeas_avdd) tran4.i(vmeas_avdd)
*+ tran5.i(vmeas_avdd) tran6.i(vmeas_avdd) tran7.i(vmeas_avdd) tran8.i(vmeas_avdd) tran9.i(vmeas_avdd)
*+ tran10.i(vmeas_avdd) tran11.i(vmeas_avdd) tran12.i(vmeas_avdd) tran13.i(vmeas_avdd) tran14.i(vmeas_avdd)
*+ tran15.i(vmeas_avdd) tran16.i(vmeas_avdd) tran17.i(vmeas_avdd) tran18.i(vmeas_avdd)
*plot tran1.i(vmeas_dvdd) tran2.i(vmeas_dvdd) tran3.i(vmeas_dvdd) tran4.i(vmeas_dvdd)
*+ tran5.i(vmeas_dvdd) tran6.i(vmeas_dvdd) tran7.i(vmeas_dvdd) tran8.i(vmeas_dvdd) tran9.i(vmeas_dvdd)
*+ tran10.i(vmeas_dvdd) tran11.i(vmeas_dvdd) tran12.i(vmeas_dvdd) tran13.i(vmeas_dvdd) tran14.i(vmeas_dvdd)
*+ tran15.i(vmeas_dvdd) tran16.i(vmeas_dvdd) tran17.i(vmeas_dvdd) tran18.i(vmeas_dvdd)
*plot tran1.v(vout) tran2.v(vout) tran3.v(vout) tran4.v(vout) tran5.v(vout) tran6.v(vout)
*+ tran7.v(vout) tran8.v(vout) tran9.v(vout) tran10.v(vout) tran11.v(vout) tran12.v(vout) tran13.v(vout)
*+ tran14.v(vout) tran15.v(vout) tran16.v(vout) tran17.v(vout) tran18.v(vout) tran19.v(vout) tran20.v(vout)
*+ tran21.v(vout) tran22.v(vout) tran23.v(vout) tran24.v(vout) tran25.v(vout) tran26.v(vout) tran27.v(vout)
*+ tran28.v(vout) tran29.v(vout) tran30.v(vout) tran31.v(vout) tran32.v(vout) tran33.v(vout) tran34.v(vout)
*+ tran35.v(vout) tran36.v(vout) tran37.v(vout) tran38.v(vout) tran39.v(vout) tran40.v(vout) tran41.v(vout)
*+ tran42.v(vout) tran43.v(vout) tran44.v(vout) tran45.v(vout) tran46.v(vout) tran47.v(vout) tran48.v(vout)
*+ tran49.v(vout) tran50.v(vout) tran51.v(vout) tran52.v(vout) tran53.v(vout) tran54.v(vout) tran55.v(vout)
*+ tran56.v(vout) tran57.v(vout) tran58.v(vout) tran59.v(vout) tran60.v(vout) tran61.v(vout) tran62.v(vout)
*+ tran63.v(vout) tran64.v(vout) tran65.v(vout) tran66.v(vout) tran67.v(vout) tran68.v(vout) tran69.v(vout)
*+ tran70.v(vout) tran71.v(vout) tran72.v(vout) tran73.v(vout) tran74.v(vout) tran75.v(vout) tran76.v(vout)
*+ tran77.v(vout) tran78.v(vout) tran79.v(vout) tran80.v(vout) tran81.v(vout)
plot tran1.v(x1.vop) tran2.v(x1.vop) tran3.v(x1.vop) tran4.v(x1.vop) tran5.v(x1.vop) tran6.v(x1.vop)
+ tran7.v(x1.vop) tran8.v(x1.vop) tran9.v(x1.vop) tran10.v(x1.vop) tran11.v(x1.vop) tran12.v(x1.vop) tran13.v(x1.vop)
+ tran14.v(x1.vop) tran15.v(x1.vop) tran16.v(x1.vop) tran17.v(x1.vop) tran18.v(x1.vop) tran19.v(x1.vop)
+ tran20.v(x1.vop) tran21.v(x1.vop) tran22.v(x1.vop) tran23.v(x1.vop) tran24.v(x1.vop) tran25.v(x1.vop)
+ tran26.v(x1.vop) tran27.v(x1.vop)
plot tran1.v(x1.vom) tran2.v(x1.vom) tran3.v(x1.vom) tran4.v(x1.vom) tran5.v(x1.vom) tran6.v(x1.vom)
+ tran7.v(x1.vom) tran8.v(x1.vom) tran9.v(x1.vom) tran10.v(x1.vom) tran11.v(x1.vom) tran12.v(x1.vom) tran13.v(x1.vom)
+ tran14.v(x1.vom) tran15.v(x1.vom) tran16.v(x1.vom) tran17.v(x1.vom) tran18.v(x1.vom) tran19.v(x1.vom)
+ tran20.v(x1.vom) tran21.v(x1.vom) tran22.v(x1.vom) tran23.v(x1.vom) tran24.v(x1.vom) tran25.v(x1.vom)
+ tran26.v(x1.vom) tran27.v(x1.vom)
plot tran1.v(x1.casc_n) tran2.v(x1.casc_n) tran3.v(x1.casc_n) tran4.v(x1.casc_n) tran5.v(x1.casc_n)
+ tran6.v(x1.casc_n) tran7.v(x1.casc_n) tran8.v(x1.casc_n) tran9.v(x1.casc_n) tran10.v(x1.casc_n) tran11.v(x1.casc_n)
+ tran12.v(x1.casc_n) tran13.v(x1.casc_n) tran14.v(x1.casc_n) tran15.v(x1.casc_n) tran16.v(x1.casc_n) tran17.v(x1.casc_n)
+ tran18.v(x1.casc_n) tran19.v(x1.casc_n) tran20.v(x1.casc_n) tran21.v(x1.casc_n) tran22.v(x1.casc_n) tran23.v(x1.casc_n)
+ tran24.v(x1.casc_n) tran25.v(x1.casc_n) tran26.v(x1.casc_n) tran27.v(x1.casc_n)
plot tran1.v(x1.bias_n) tran2.v(x1.bias_n) tran3.v(x1.bias_n) tran4.v(x1.bias_n) tran5.v(x1.bias_n)
+ tran6.v(x1.bias_n) tran7.v(x1.bias_n) tran8.v(x1.bias_n) tran9.v(x1.bias_n) tran10.v(x1.bias_n) tran11.v(x1.bias_n)
+ tran12.v(x1.bias_n) tran13.v(x1.bias_n) tran14.v(x1.bias_n) tran15.v(x1.bias_n) tran16.v(x1.bias_n) tran17.v(x1.bias_n)
+ tran18.v(x1.bias_n) tran19.v(x1.bias_n) tran20.v(x1.bias_n) tran21.v(x1.bias_n) tran22.v(x1.bias_n) tran23.v(x1.bias_n)
+ tran24.v(x1.bias_n) tran25.v(x1.bias_n) tran26.v(x1.bias_n) tran27.v(x1.bias_n)
plot tran1.i(e3)-tran1.i(e2) tran2.i(e3)-tran2.i(e2) tran3.i(e3)-tran3.i(e2) tran4.i(e3)-tran4.i(e2)
+ tran5.i(e3)-tran5.i(e2) tran6.i(e3)-tran6.i(e2) tran7.i(e3)-tran7.i(e2) tran8.i(e3)-tran8.i(e2) tran9.i(e3)-tran9.i(e2)
+ tran10.i(e3)-tran10.i(e2) tran11.i(e3)-tran11.i(e2) tran12.i(e3)-tran12.i(e2) tran13.i(e3)-tran13.i(e2)
+ tran14.i(e3)-tran14.i(e2) tran15.i(e3)-tran15.i(e2) tran16.i(e3)-tran16.i(e2) tran17.i(e3)-tran17.i(e2)
+ tran18.i(e3)-tran18.i(e2) tran19.i(e3)-tran19.i(e2) tran20.i(e3)-tran20.i(e2) tran21.i(e3)-tran21.i(e2)
+ tran22.i(e3)-tran22.i(e2) tran23.i(e3)-tran23.i(e2) tran24.i(e3)-tran24.i(e2) tran25.i(e3)-tran25.i(e2)
+ tran26.i(e3)-tran26.i(e2) tran27.i(e3)-tran27.i(e2)
*set filetype = ascii
print vecmax(idd_ana)
print vecmax(idd_dig)
.endc


**** end user architecture code
**.ends

* expanding   symbol:  comparator_new.sym # of pins=11
** sym_path: /foss/designs/sky130_ak_ip__comparator/xschem/comparator_new.sym
** sch_path: /foss/designs/sky130_ak_ip__comparator/xschem/comparator_new.sch
.subckt comparator_new DVDD AVDD AGND DGND Vinp Vout Vinm en hyst[1] hyst[0] trim[3] trim[2] trim[1]
+ trim[0] ibias
*.ipin Vinp
*.ipin Vinm
*.ipin AVDD
*.ipin AGND
*.ipin en
*.ipin hyst[1],hyst[0]
*.ipin trim[3],trim[2],trim[1],trim[0]
*.opin Vout
*.ipin DVDD
*.ipin ibias
*.ipin DGND
XM7 bias_n bias_n AGND AGND sky130_fd_pr__nfet_g5v0d10v5 L=8 W=2 nf=1 ad='int((nf+1)/2) * W/nf * 0.29'
+ as='int((nf+2)/2) * W/nf * 0.29' pd='2*int((nf+1)/2) * (W/nf + 0.29)' ps='2*int((nf+2)/2) * (W/nf + 0.29)'
+ nrd='0.29 / W' nrs='0.29 / W' sa=0 sb=0 sd=0 mult=2 m=2
XM6 net3 Vinm Vxm AGND sky130_fd_pr__nfet_g5v0d10v5 L=1.5 W=8 nf=1 ad='int((nf+1)/2) * W/nf * 0.29' as='int((nf+2)/2) * W/nf * 0.29'
+ pd='2*int((nf+1)/2) * (W/nf + 0.29)' ps='2*int((nf+2)/2) * (W/nf + 0.29)' nrd='0.29 / W' nrs='0.29 / W'
+ sa=0 sb=0 sd=0 mult=64 m=64
XM2 net1 bias_n AGND AGND sky130_fd_pr__nfet_g5v0d10v5 L=8 W=2 nf=1 ad='int((nf+1)/2) * W/nf * 0.29'
+ as='int((nf+2)/2) * W/nf * 0.29' pd='2*int((nf+1)/2) * (W/nf + 0.29)' ps='2*int((nf+2)/2) * (W/nf + 0.29)'
+ nrd='0.29 / W' nrs='0.29 / W' sa=0 sb=0 sd=0 mult=40 m=40
XM1 net2 Vinp Vxm AGND sky130_fd_pr__nfet_g5v0d10v5 L=1.5 W=8 nf=1 ad='int((nf+1)/2) * W/nf * 0.29' as='int((nf+2)/2) * W/nf * 0.29'
+ pd='2*int((nf+1)/2) * (W/nf + 0.29)' ps='2*int((nf+2)/2) * (W/nf + 0.29)' nrd='0.29 / W' nrs='0.29 / W'
+ sa=0 sb=0 sd=0 mult=64 m=64
XM4 net9 bias_var_p AVDD AVDD sky130_fd_pr__pfet_g5v0d10v5 L=8 W=4 nf=1 ad='int((nf+1)/2) * W/nf * 0.29'
+ as='int((nf+2)/2) * W/nf * 0.29' pd='2*int((nf+1)/2) * (W/nf + 0.29)' ps='2*int((nf+2)/2) * (W/nf + 0.29)'
+ nrd='0.29 / W' nrs='0.29 / W' sa=0 sb=0 sd=0 mult=40 m=40
XM5 net5 Vinm Vxp AVDD sky130_fd_pr__pfet_g5v0d10v5 L=1.5 W=8 nf=2 ad='int((nf+1)/2) * W/nf * 0.29' as='int((nf+2)/2) * W/nf * 0.29'
+ pd='2*int((nf+1)/2) * (W/nf + 0.29)' ps='2*int((nf+2)/2) * (W/nf + 0.29)' nrd='0.29 / W' nrs='0.29 / W'
+ sa=0 sb=0 sd=0 mult=64 m=64
XM17 net4 Vinp Vxp AVDD sky130_fd_pr__pfet_g5v0d10v5 L=1.5 W=8 nf=2 ad='int((nf+1)/2) * W/nf * 0.29'
+ as='int((nf+2)/2) * W/nf * 0.29' pd='2*int((nf+1)/2) * (W/nf + 0.29)' ps='2*int((nf+2)/2) * (W/nf + 0.29)'
+ nrd='0.29 / W' nrs='0.29 / W' sa=0 sb=0 sd=0 mult=64 m=64
XM22 net6 bias_p AVDD AVDD sky130_fd_pr__pfet_g5v0d10v5 L=8 W=4 nf=2 ad='int((nf+1)/2) * W/nf * 0.29'
+ as='int((nf+2)/2) * W/nf * 0.29' pd='2*int((nf+1)/2) * (W/nf + 0.29)' ps='2*int((nf+2)/2) * (W/nf + 0.29)'
+ nrd='0.29 / W' nrs='0.29 / W' sa=0 sb=0 sd=0 mult=2 m=2
XM23 Vom_stg2 Vop net6 AVDD sky130_fd_pr__pfet_g5v0d10v5 L=1 W=4 nf=2 ad='int((nf+1)/2) * W/nf * 0.29'
+ as='int((nf+2)/2) * W/nf * 0.29' pd='2*int((nf+1)/2) * (W/nf + 0.29)' ps='2*int((nf+2)/2) * (W/nf + 0.29)'
+ nrd='0.29 / W' nrs='0.29 / W' sa=0 sb=0 sd=0 mult=4 m=4
XM24 Vop_stg2 Vom net6 AVDD sky130_fd_pr__pfet_g5v0d10v5 L=1 W=4 nf=2 ad='int((nf+1)/2) * W/nf * 0.29'
+ as='int((nf+2)/2) * W/nf * 0.29' pd='2*int((nf+1)/2) * (W/nf + 0.29)' ps='2*int((nf+2)/2) * (W/nf + 0.29)'
+ nrd='0.29 / W' nrs='0.29 / W' sa=0 sb=0 sd=0 mult=4 m=4
XM25 Vop_stg2 Vop_stg2 DGND DGND sky130_fd_pr__nfet_g5v0d10v5 L=1 W=2 nf=1 ad='int((nf+1)/2) * W/nf * 0.29'
+ as='int((nf+2)/2) * W/nf * 0.29' pd='2*int((nf+1)/2) * (W/nf + 0.29)' ps='2*int((nf+2)/2) * (W/nf + 0.29)'
+ nrd='0.29 / W' nrs='0.29 / W' sa=0 sb=0 sd=0 mult=2 m=2
XM26 Vom_stg2 Vom_stg2 DGND DGND sky130_fd_pr__nfet_g5v0d10v5 L=1 W=2 nf=1 ad='int((nf+1)/2) * W/nf * 0.29'
+ as='int((nf+2)/2) * W/nf * 0.29' pd='2*int((nf+1)/2) * (W/nf + 0.29)' ps='2*int((nf+2)/2) * (W/nf + 0.29)'
+ nrd='0.29 / W' nrs='0.29 / W' sa=0 sb=0 sd=0 mult=2 m=2
XM27 net7 Vom_stg2 DGND DGND sky130_fd_pr__nfet_g5v0d10v5 L=1 W=2 nf=1 ad='int((nf+1)/2) * W/nf * 0.29'
+ as='int((nf+2)/2) * W/nf * 0.29' pd='2*int((nf+1)/2) * (W/nf + 0.29)' ps='2*int((nf+2)/2) * (W/nf + 0.29)'
+ nrd='0.29 / W' nrs='0.29 / W' sa=0 sb=0 sd=0 mult=2 m=2
XM28 Vdiff Vop_stg2 DGND DGND sky130_fd_pr__nfet_g5v0d10v5 L=1 W=2 nf=1 ad='int((nf+1)/2) * W/nf * 0.29'
+ as='int((nf+2)/2) * W/nf * 0.29' pd='2*int((nf+1)/2) * (W/nf + 0.29)' ps='2*int((nf+2)/2) * (W/nf + 0.29)'
+ nrd='0.29 / W' nrs='0.29 / W' sa=0 sb=0 sd=0 mult=2 m=2
XM29 Vdiff net7 DVDD DVDD sky130_fd_pr__pfet_01v8 L=1 W=4 nf=1 ad='int((nf+1)/2) * W/nf * 0.29' as='int((nf+2)/2) * W/nf * 0.29'
+ pd='2*int((nf+1)/2) * (W/nf + 0.29)' ps='2*int((nf+2)/2) * (W/nf + 0.29)' nrd='0.29 / W' nrs='0.29 / W'
+ sa=0 sb=0 sd=0 mult=2 m=2
XM30 net7 net7 DVDD DVDD sky130_fd_pr__pfet_01v8 L=1 W=4 nf=1 ad='int((nf+1)/2) * W/nf * 0.29' as='int((nf+2)/2) * W/nf * 0.29'
+ pd='2*int((nf+1)/2) * (W/nf + 0.29)' ps='2*int((nf+2)/2) * (W/nf + 0.29)' nrd='0.29 / W' nrs='0.29 / W'
+ sa=0 sb=0 sd=0 mult=2 m=2
XM31 Vout Vdiff DVDD DVDD sky130_fd_pr__pfet_01v8 L=0.15 W=1 nf=2 ad='int((nf+1)/2) * W/nf * 0.29' as='int((nf+2)/2) * W/nf * 0.29'
+ pd='2*int((nf+1)/2) * (W/nf + 0.29)' ps='2*int((nf+2)/2) * (W/nf + 0.29)' nrd='0.29 / W' nrs='0.29 / W'
+ sa=0 sb=0 sd=0 mult=1 m=1
XM44 Vout Vdiff DGND DGND sky130_fd_pr__nfet_01v8 L=0.15 W=0.5 nf=1 ad='int((nf+1)/2) * W/nf * 0.29'
+ as='int((nf+2)/2) * W/nf * 0.29' pd='2*int((nf+1)/2) * (W/nf + 0.29)' ps='2*int((nf+2)/2) * (W/nf + 0.29)'
+ nrd='0.29 / W' nrs='0.29 / W' sa=0 sb=0 sd=0 mult=1 m=1
XM45 ibias ibias bias_n AGND sky130_fd_pr__nfet_g5v0d10v5 L=8 W=1 nf=1 ad='int((nf+1)/2) * W/nf * 0.29'
+ as='int((nf+2)/2) * W/nf * 0.29' pd='2*int((nf+1)/2) * (W/nf + 0.29)' ps='2*int((nf+2)/2) * (W/nf + 0.29)'
+ nrd='0.29 / W' nrs='0.29 / W' sa=0 sb=0 sd=0 mult=1 m=1
XM48 bias_n enb_hv AGND AGND sky130_fd_pr__nfet_g5v0d10v5 L=0.5 W=2 nf=1 ad='int((nf+1)/2) * W/nf * 0.29'
+ as='int((nf+2)/2) * W/nf * 0.29' pd='2*int((nf+1)/2) * (W/nf + 0.29)' ps='2*int((nf+2)/2) * (W/nf + 0.29)'
+ nrd='0.29 / W' nrs='0.29 / W' sa=0 sb=0 sd=0 mult=4 m=4
XM40 net15 bias_hyst net10 AGND sky130_fd_pr__nfet_g5v0d10v5 L=8 W=2 nf=1 ad='int((nf+1)/2) * W/nf * 0.29'
+ as='int((nf+2)/2) * W/nf * 0.29' pd='2*int((nf+1)/2) * (W/nf + 0.29)' ps='2*int((nf+2)/2) * (W/nf + 0.29)'
+ nrd='0.29 / W' nrs='0.29 / W' sa=0 sb=0 sd=0 mult=3 m=3
XM53 Vfold_p DVDD net37 AGND sky130_fd_pr__nfet_g5v0d10v5 L=1 W=2 nf=1 ad='int((nf+1)/2) * W/nf * 0.29'
+ as='int((nf+2)/2) * W/nf * 0.29' pd='2*int((nf+1)/2) * (W/nf + 0.29)' ps='2*int((nf+2)/2) * (W/nf + 0.29)'
+ nrd='0.29 / W' nrs='0.29 / W' sa=0 sb=0 sd=0 mult=4 m=4
XM54 Vfold_m DGND net37 AGND sky130_fd_pr__nfet_g5v0d10v5 L=1 W=2 nf=1 ad='int((nf+1)/2) * W/nf * 0.29'
+ as='int((nf+2)/2) * W/nf * 0.29' pd='2*int((nf+1)/2) * (W/nf + 0.29)' ps='2*int((nf+2)/2) * (W/nf + 0.29)'
+ nrd='0.29 / W' nrs='0.29 / W' sa=0 sb=0 sd=0 mult=4 m=4
XM73 net16 bias_hyst net36 AGND sky130_fd_pr__nfet_g5v0d10v5 L=8 W=2 nf=1 ad='int((nf+1)/2) * W/nf * 0.29'
+ as='int((nf+2)/2) * W/nf * 0.29' pd='2*int((nf+1)/2) * (W/nf + 0.29)' ps='2*int((nf+2)/2) * (W/nf + 0.29)'
+ nrd='0.29 / W' nrs='0.29 / W' sa=0 sb=0 sd=0 mult=1 m=1
XM75 Voutb Vout DVDD DVDD sky130_fd_pr__pfet_01v8 L=0.15 W=1 nf=2 ad='int((nf+1)/2) * W/nf * 0.29' as='int((nf+2)/2) * W/nf * 0.29'
+ pd='2*int((nf+1)/2) * (W/nf + 0.29)' ps='2*int((nf+2)/2) * (W/nf + 0.29)' nrd='0.29 / W' nrs='0.29 / W'
+ sa=0 sb=0 sd=0 mult=1 m=1
XM76 Voutb Vout DGND DGND sky130_fd_pr__nfet_01v8 L=0.15 W=0.5 nf=1 ad='int((nf+1)/2) * W/nf * 0.29'
+ as='int((nf+2)/2) * W/nf * 0.29' pd='2*int((nf+1)/2) * (W/nf + 0.29)' ps='2*int((nf+2)/2) * (W/nf + 0.29)'
+ nrd='0.29 / W' nrs='0.29 / W' sa=0 sb=0 sd=0 mult=1 m=1
XM77 net8 bias_p AVDD AVDD sky130_fd_pr__pfet_g5v0d10v5 L=8 W=4 nf=1 ad='int((nf+1)/2) * W/nf * 0.29'
+ as='int((nf+2)/2) * W/nf * 0.29' pd='2*int((nf+1)/2) * (W/nf + 0.29)' ps='2*int((nf+2)/2) * (W/nf + 0.29)'
+ nrd='0.29 / W' nrs='0.29 / W' sa=0 sb=0 sd=0 mult=1 m=1
XM78 bias_hyst bias_hyst AGND AGND sky130_fd_pr__nfet_g5v0d10v5 L=8 W=2 nf=1 ad='int((nf+1)/2) * W/nf * 0.29'
+ as='int((nf+2)/2) * W/nf * 0.29' pd='2*int((nf+1)/2) * (W/nf + 0.29)' ps='2*int((nf+2)/2) * (W/nf + 0.29)'
+ nrd='0.29 / W' nrs='0.29 / W' sa=0 sb=0 sd=0 mult=2 m=2
XM79 bias_hyst casc_p net8 AVDD sky130_fd_pr__pfet_g5v0d10v5 L=1 W=4 nf=1 ad='int((nf+1)/2) * W/nf * 0.29'
+ as='int((nf+2)/2) * W/nf * 0.29' pd='2*int((nf+1)/2) * (W/nf + 0.29)' ps='2*int((nf+2)/2) * (W/nf + 0.29)'
+ nrd='0.29 / W' nrs='0.29 / W' sa=0 sb=0 sd=0 mult=1 m=1
XM90 Vxm casc_n net1 AGND sky130_fd_pr__nfet_g5v0d10v5 L=1 W=2 nf=1 ad='int((nf+1)/2) * W/nf * 0.29'
+ as='int((nf+2)/2) * W/nf * 0.29' pd='2*int((nf+1)/2) * (W/nf + 0.29)' ps='2*int((nf+2)/2) * (W/nf + 0.29)'
+ nrd='0.29 / W' nrs='0.29 / W' sa=0 sb=0 sd=0 mult=40 m=40
XM91 Vxp casc_p net9 AVDD sky130_fd_pr__pfet_g5v0d10v5 L=1 W=4 nf=1 ad='int((nf+1)/2) * W/nf * 0.29'
+ as='int((nf+2)/2) * W/nf * 0.29' pd='2*int((nf+1)/2) * (W/nf + 0.29)' ps='2*int((nf+2)/2) * (W/nf + 0.29)'
+ nrd='0.29 / W' nrs='0.29 / W' sa=0 sb=0 sd=0 mult=40 m=40
XM94 net14 bias_n AGND AGND sky130_fd_pr__nfet_g5v0d10v5 L=8 W=2 nf=1 ad='int((nf+1)/2) * W/nf * 0.29'
+ as='int((nf+2)/2) * W/nf * 0.29' pd='2*int((nf+1)/2) * (W/nf + 0.29)' ps='2*int((nf+2)/2) * (W/nf + 0.29)'
+ nrd='0.29 / W' nrs='0.29 / W' sa=0 sb=0 sd=0 mult=2 m=2
XM95 bias_p bias_p AVDD AVDD sky130_fd_pr__pfet_g5v0d10v5 L=8 W=4 nf=1 ad='int((nf+1)/2) * W/nf * 0.29'
+ as='int((nf+2)/2) * W/nf * 0.29' pd='2*int((nf+1)/2) * (W/nf + 0.29)' ps='2*int((nf+2)/2) * (W/nf + 0.29)'
+ nrd='0.29 / W' nrs='0.29 / W' sa=0 sb=0 sd=0 mult=2 m=2
XM16 net10 hyst1_hv AGND AGND sky130_fd_pr__nfet_g5v0d10v5 L=0.5 W=2 nf=1 ad='int((nf+1)/2) * W/nf * 0.29'
+ as='int((nf+2)/2) * W/nf * 0.29' pd='2*int((nf+1)/2) * (W/nf + 0.29)' ps='2*int((nf+2)/2) * (W/nf + 0.29)'
+ nrd='0.29 / W' nrs='0.29 / W' sa=0 sb=0 sd=0 mult=3 m=3
XM33 net36 hyst0_hv AGND AGND sky130_fd_pr__nfet_g5v0d10v5 L=0.5 W=2 nf=1 ad='int((nf+1)/2) * W/nf * 0.29'
+ as='int((nf+2)/2) * W/nf * 0.29' pd='2*int((nf+1)/2) * (W/nf + 0.29)' ps='2*int((nf+2)/2) * (W/nf + 0.29)'
+ nrd='0.29 / W' nrs='0.29 / W' sa=0 sb=0 sd=0 mult=1 m=1
XM67 Vop_stg2 Vom_stg2 DGND DGND sky130_fd_pr__nfet_g5v0d10v5 L=0.5 W=1 nf=1 ad='int((nf+1)/2) * W/nf * 0.29'
+ as='int((nf+2)/2) * W/nf * 0.29' pd='2*int((nf+1)/2) * (W/nf + 0.29)' ps='2*int((nf+2)/2) * (W/nf + 0.29)'
+ nrd='0.29 / W' nrs='0.29 / W' sa=0 sb=0 sd=0 mult=1 m=1
XM69 Vom_stg2 Vop_stg2 DGND DGND sky130_fd_pr__nfet_g5v0d10v5 L=0.5 W=1 nf=1 ad='int((nf+1)/2) * W/nf * 0.29'
+ as='int((nf+2)/2) * W/nf * 0.29' pd='2*int((nf+1)/2) * (W/nf + 0.29)' ps='2*int((nf+2)/2) * (W/nf + 0.29)'
+ nrd='0.29 / W' nrs='0.29 / W' sa=0 sb=0 sd=0 mult=1 m=1
XM15 bias_p en_hv AVDD AVDD sky130_fd_pr__pfet_g5v0d10v5 L=0.5 W=4 nf=2 ad='int((nf+1)/2) * W/nf * 0.29'
+ as='int((nf+2)/2) * W/nf * 0.29' pd='2*int((nf+1)/2) * (W/nf + 0.29)' ps='2*int((nf+2)/2) * (W/nf + 0.29)'
+ nrd='0.29 / W' nrs='0.29 / W' sa=0 sb=0 sd=0 mult=4 m=4
x2 AVDD DVDD DGND trim2b_hv trim2_hv trim[2] AGND level_shifter_up
x4 AVDD DVDD DGND trim1b_hv trim1_hv trim[1] AGND level_shifter_up
x5 AVDD DVDD DGND trim0b_hv trim0_hv trim[0] AGND level_shifter_up
x6 AVDD DVDD DGND enb_hv en_hv en AGND level_shifter_up
x7 AVDD DVDD DGND hyst1b_hv hyst1_hv hyst[1] AGND level_shifter_up
x8 AVDD DVDD DGND hyst0b_hv hyst0_hv hyst[0] AGND level_shifter_up
XM32 Vdiff enb_hv DGND DGND sky130_fd_pr__nfet_g5v0d10v5 L=0.5 W=2 nf=1 ad='int((nf+1)/2) * W/nf * 0.29'
+ as='int((nf+2)/2) * W/nf * 0.29' pd='2*int((nf+1)/2) * (W/nf + 0.29)' ps='2*int((nf+2)/2) * (W/nf + 0.29)'
+ nrd='0.29 / W' nrs='0.29 / W' sa=0 sb=0 sd=0 mult=4 m=4
XM34 casc_n bias_n AGND AGND sky130_fd_pr__nfet_g5v0d10v5 L=8 W=2 nf=1 ad='int((nf+1)/2) * W/nf * 0.29'
+ as='int((nf+2)/2) * W/nf * 0.29' pd='2*int((nf+1)/2) * (W/nf + 0.29)' ps='2*int((nf+2)/2) * (W/nf + 0.29)'
+ nrd='0.29 / W' nrs='0.29 / W' sa=0 sb=0 sd=0 mult=1 m=1
XM36 AVDD ibias casc_n AGND sky130_fd_pr__nfet_g5v0d10v5 L=1 W=2 nf=1 ad='int((nf+1)/2) * W/nf * 0.29'
+ as='int((nf+2)/2) * W/nf * 0.29' pd='2*int((nf+1)/2) * (W/nf + 0.29)' ps='2*int((nf+2)/2) * (W/nf + 0.29)'
+ nrd='0.29 / W' nrs='0.29 / W' sa=0 sb=0 sd=0 mult=1 m=1
XM3 Vfold_bot_p Vom AGND AGND sky130_fd_pr__nfet_g5v0d10v5 L=8 W=2 nf=1 ad='int((nf+1)/2) * W/nf * 0.29'
+ as='int((nf+2)/2) * W/nf * 0.29' pd='2*int((nf+1)/2) * (W/nf + 0.29)' ps='2*int((nf+2)/2) * (W/nf + 0.29)'
+ nrd='0.29 / W' nrs='0.29 / W' sa=0 sb=0 sd=0 mult=8 m=8
XM9 Vfold_p bias_p AVDD AVDD sky130_fd_pr__pfet_g5v0d10v5 L=8 W=4 nf=1 ad='int((nf+1)/2) * W/nf * 0.29'
+ as='int((nf+2)/2) * W/nf * 0.29' pd='2*int((nf+1)/2) * (W/nf + 0.29)' ps='2*int((nf+2)/2) * (W/nf + 0.29)'
+ nrd='0.29 / W' nrs='0.29 / W' sa=0 sb=0 sd=0 mult=8 m=8
XM10 Vfold_p bias_var_p2 AVDD AVDD sky130_fd_pr__pfet_g5v0d10v5 L=8 W=4 nf=1 ad='int((nf+1)/2) * W/nf * 0.29'
+ as='int((nf+2)/2) * W/nf * 0.29' pd='2*int((nf+1)/2) * (W/nf + 0.29)' ps='2*int((nf+2)/2) * (W/nf + 0.29)'
+ nrd='0.29 / W' nrs='0.29 / W' sa=0 sb=0 sd=0 mult=20 m=20
XM13 Vfold_bot_p bias_var_n AGND AGND sky130_fd_pr__nfet_g5v0d10v5 L=8 W=2 nf=1 ad='int((nf+1)/2) * W/nf * 0.29'
+ as='int((nf+2)/2) * W/nf * 0.29' pd='2*int((nf+1)/2) * (W/nf + 0.29)' ps='2*int((nf+2)/2) * (W/nf + 0.29)'
+ nrd='0.29 / W' nrs='0.29 / W' sa=0 sb=0 sd=0 mult=20 m=20
XM19 Vop casc_p Vfold_p AVDD sky130_fd_pr__pfet_g5v0d10v5 L=1 W=4 nf=1 ad='int((nf+1)/2) * W/nf * 0.29'
+ as='int((nf+2)/2) * W/nf * 0.29' pd='2*int((nf+1)/2) * (W/nf + 0.29)' ps='2*int((nf+2)/2) * (W/nf + 0.29)'
+ nrd='0.29 / W' nrs='0.29 / W' sa=0 sb=0 sd=0 mult=24 m=24
XM21 Vop casc_n Vfold_bot_p AGND sky130_fd_pr__nfet_g5v0d10v5 L=1 W=2 nf=1 ad='int((nf+1)/2) * W/nf * 0.29'
+ as='int((nf+2)/2) * W/nf * 0.29' pd='2*int((nf+1)/2) * (W/nf + 0.29)' ps='2*int((nf+2)/2) * (W/nf + 0.29)'
+ nrd='0.29 / W' nrs='0.29 / W' sa=0 sb=0 sd=0 mult=24 m=24
XM38 test Vinm net11 AGND sky130_fd_pr__nfet_g5v0d10v5 L=1 W=8 nf=1 ad='int((nf+1)/2) * W/nf * 0.29'
+ as='int((nf+2)/2) * W/nf * 0.29' pd='2*int((nf+1)/2) * (W/nf + 0.29)' ps='2*int((nf+2)/2) * (W/nf + 0.29)'
+ nrd='0.29 / W' nrs='0.29 / W' sa=0 sb=0 sd=0 mult=2 m=2
XM39 test Vinp net11 AGND sky130_fd_pr__nfet_g5v0d10v5 L=1 W=8 nf=1 ad='int((nf+1)/2) * W/nf * 0.29'
+ as='int((nf+2)/2) * W/nf * 0.29' pd='2*int((nf+1)/2) * (W/nf + 0.29)' ps='2*int((nf+2)/2) * (W/nf + 0.29)'
+ nrd='0.29 / W' nrs='0.29 / W' sa=0 sb=0 sd=0 mult=2 m=2
XM49 test bias_var_p2 AVDD AVDD sky130_fd_pr__pfet_g5v0d10v5 L=8 W=4 nf=1 ad='int((nf+1)/2) * W/nf * 0.29'
+ as='int((nf+2)/2) * W/nf * 0.29' pd='2*int((nf+1)/2) * (W/nf + 0.29)' ps='2*int((nf+2)/2) * (W/nf + 0.29)'
+ nrd='0.29 / W' nrs='0.29 / W' sa=0 sb=0 sd=0 mult=1 m=1
XM60 net13 bias_var_p2 AVDD AVDD sky130_fd_pr__pfet_g5v0d10v5 L=8 W=4 nf=1 ad='int((nf+1)/2) * W/nf * 0.29'
+ as='int((nf+2)/2) * W/nf * 0.29' pd='2*int((nf+1)/2) * (W/nf + 0.29)' ps='2*int((nf+2)/2) * (W/nf + 0.29)'
+ nrd='0.29 / W' nrs='0.29 / W' sa=0 sb=0 sd=0 mult=1 m=1
XM61 net12 bias_n AGND AGND sky130_fd_pr__nfet_g5v0d10v5 L=8 W=2 nf=1 ad='int((nf+1)/2) * W/nf * 0.29'
+ as='int((nf+2)/2) * W/nf * 0.29' pd='2*int((nf+1)/2) * (W/nf + 0.29)' ps='2*int((nf+2)/2) * (W/nf + 0.29)'
+ nrd='0.29 / W' nrs='0.29 / W' sa=0 sb=0 sd=0 mult=1 m=1
XM62 bias_var_p bias_var_p AVDD AVDD sky130_fd_pr__pfet_g5v0d10v5 L=8 W=4 nf=1 ad='int((nf+1)/2) * W/nf * 0.29'
+ as='int((nf+2)/2) * W/nf * 0.29' pd='2*int((nf+1)/2) * (W/nf + 0.29)' ps='2*int((nf+2)/2) * (W/nf + 0.29)'
+ nrd='0.29 / W' nrs='0.29 / W' sa=0 sb=0 sd=0 mult=1 m=1
XM68 bias_var_n bias_var_p AVDD AVDD sky130_fd_pr__pfet_g5v0d10v5 L=8 W=4 nf=1 ad='int((nf+1)/2) * W/nf * 0.29'
+ as='int((nf+2)/2) * W/nf * 0.29' pd='2*int((nf+1)/2) * (W/nf + 0.29)' ps='2*int((nf+2)/2) * (W/nf + 0.29)'
+ nrd='0.29 / W' nrs='0.29 / W' sa=0 sb=0 sd=0 mult=1 m=1
XM70 bias_var_n bias_var_n AGND AGND sky130_fd_pr__nfet_g5v0d10v5 L=8 W=2 nf=1 ad='int((nf+1)/2) * W/nf * 0.29'
+ as='int((nf+2)/2) * W/nf * 0.29' pd='2*int((nf+1)/2) * (W/nf + 0.29)' ps='2*int((nf+2)/2) * (W/nf + 0.29)'
+ nrd='0.29 / W' nrs='0.29 / W' sa=0 sb=0 sd=0 mult=1 m=1
XM8 Vfold_bot_m bias_var_n AGND AGND sky130_fd_pr__nfet_g5v0d10v5 L=8 W=2 nf=1 ad='int((nf+1)/2) * W/nf * 0.29'
+ as='int((nf+2)/2) * W/nf * 0.29' pd='2*int((nf+1)/2) * (W/nf + 0.29)' ps='2*int((nf+2)/2) * (W/nf + 0.29)'
+ nrd='0.29 / W' nrs='0.29 / W' sa=0 sb=0 sd=0 mult=20 m=20
XM11 Vfold_m bias_var_p2 AVDD AVDD sky130_fd_pr__pfet_g5v0d10v5 L=8 W=4 nf=1 ad='int((nf+1)/2) * W/nf * 0.29'
+ as='int((nf+2)/2) * W/nf * 0.29' pd='2*int((nf+1)/2) * (W/nf + 0.29)' ps='2*int((nf+2)/2) * (W/nf + 0.29)'
+ nrd='0.29 / W' nrs='0.29 / W' sa=0 sb=0 sd=0 mult=20 m=20
XM12 Vfold_m bias_p AVDD AVDD sky130_fd_pr__pfet_g5v0d10v5 L=8 W=4 nf=1 ad='int((nf+1)/2) * W/nf * 0.29'
+ as='int((nf+2)/2) * W/nf * 0.29' pd='2*int((nf+1)/2) * (W/nf + 0.29)' ps='2*int((nf+2)/2) * (W/nf + 0.29)'
+ nrd='0.29 / W' nrs='0.29 / W' sa=0 sb=0 sd=0 mult=8 m=8
XM14 Vfold_bot_m Vom AGND AGND sky130_fd_pr__nfet_g5v0d10v5 L=8 W=2 nf=1 ad='int((nf+1)/2) * W/nf * 0.29'
+ as='int((nf+2)/2) * W/nf * 0.29' pd='2*int((nf+1)/2) * (W/nf + 0.29)' ps='2*int((nf+2)/2) * (W/nf + 0.29)'
+ nrd='0.29 / W' nrs='0.29 / W' sa=0 sb=0 sd=0 mult=8 m=8
XM18 Vom casc_p Vfold_m AVDD sky130_fd_pr__pfet_g5v0d10v5 L=1 W=4 nf=1 ad='int((nf+1)/2) * W/nf * 0.29'
+ as='int((nf+2)/2) * W/nf * 0.29' pd='2*int((nf+1)/2) * (W/nf + 0.29)' ps='2*int((nf+2)/2) * (W/nf + 0.29)'
+ nrd='0.29 / W' nrs='0.29 / W' sa=0 sb=0 sd=0 mult=24 m=24
XM20 Vom casc_n Vfold_bot_m AGND sky130_fd_pr__nfet_g5v0d10v5 L=1 W=2 nf=1 ad='int((nf+1)/2) * W/nf * 0.29'
+ as='int((nf+2)/2) * W/nf * 0.29' pd='2*int((nf+1)/2) * (W/nf + 0.29)' ps='2*int((nf+2)/2) * (W/nf + 0.29)'
+ nrd='0.29 / W' nrs='0.29 / W' sa=0 sb=0 sd=0 mult=24 m=24
XM84 bias_var_p casc_n net12 AGND sky130_fd_pr__nfet_g5v0d10v5 L=1 W=2 nf=1 ad='int((nf+1)/2) * W/nf * 0.29'
+ as='int((nf+2)/2) * W/nf * 0.29' pd='2*int((nf+1)/2) * (W/nf + 0.29)' ps='2*int((nf+2)/2) * (W/nf + 0.29)'
+ nrd='0.29 / W' nrs='0.29 / W' sa=0 sb=0 sd=0 mult=1 m=1
XM85 bias_var_p casc_p net13 AVDD sky130_fd_pr__pfet_g5v0d10v5 L=1 W=4 nf=1 ad='int((nf+1)/2) * W/nf * 0.29'
+ as='int((nf+2)/2) * W/nf * 0.29' pd='2*int((nf+1)/2) * (W/nf + 0.29)' ps='2*int((nf+2)/2) * (W/nf + 0.29)'
+ nrd='0.29 / W' nrs='0.29 / W' sa=0 sb=0 sd=0 mult=1 m=1
XM86 bias_p casc_n net14 AGND sky130_fd_pr__nfet_g5v0d10v5 L=1 W=2 nf=1 ad='int((nf+1)/2) * W/nf * 0.29'
+ as='int((nf+2)/2) * W/nf * 0.29' pd='2*int((nf+1)/2) * (W/nf + 0.29)' ps='2*int((nf+2)/2) * (W/nf + 0.29)'
+ nrd='0.29 / W' nrs='0.29 / W' sa=0 sb=0 sd=0 mult=2 m=2
XM88 net37 casc_n net15 AGND sky130_fd_pr__nfet_g5v0d10v5 L=1 W=2 nf=1 ad='int((nf+1)/2) * W/nf * 0.29'
+ as='int((nf+2)/2) * W/nf * 0.29' pd='2*int((nf+1)/2) * (W/nf + 0.29)' ps='2*int((nf+2)/2) * (W/nf + 0.29)'
+ nrd='0.29 / W' nrs='0.29 / W' sa=0 sb=0 sd=0 mult=3 m=3
XM89 Vfold_p Vinp net44 AGND sky130_fd_pr__nfet_g5v0d10v5 L=2 W=8 nf=1 ad='int((nf+1)/2) * W/nf * 0.29'
+ as='int((nf+2)/2) * W/nf * 0.29' pd='2*int((nf+1)/2) * (W/nf + 0.29)' ps='2*int((nf+2)/2) * (W/nf + 0.29)'
+ nrd='0.29 / W' nrs='0.29 / W' sa=0 sb=0 sd=0 mult=8 m=8
XM92 net17 AGND AGND AGND sky130_fd_pr__nfet_g5v0d10v5 L=8 W=2 nf=1 ad='int((nf+1)/2) * W/nf * 0.29'
+ as='int((nf+2)/2) * W/nf * 0.29' pd='2*int((nf+1)/2) * (W/nf + 0.29)' ps='2*int((nf+2)/2) * (W/nf + 0.29)'
+ nrd='0.29 / W' nrs='0.29 / W' sa=0 sb=0 sd=0 mult=4 m=4
XM93 Vfold_m Vinm net43 AGND sky130_fd_pr__nfet_g5v0d10v5 L=2 W=8 nf=1 ad='int((nf+1)/2) * W/nf * 0.29'
+ as='int((nf+2)/2) * W/nf * 0.29' pd='2*int((nf+1)/2) * (W/nf + 0.29)' ps='2*int((nf+2)/2) * (W/nf + 0.29)'
+ nrd='0.29 / W' nrs='0.29 / W' sa=0 sb=0 sd=0 mult=8 m=8
XM97 net18 casc_n net17 AGND sky130_fd_pr__nfet_g5v0d10v5 L=1 W=2 nf=1 ad='int((nf+1)/2) * W/nf * 0.29'
+ as='int((nf+2)/2) * W/nf * 0.29' pd='2*int((nf+1)/2) * (W/nf + 0.29)' ps='2*int((nf+2)/2) * (W/nf + 0.29)'
+ nrd='0.29 / W' nrs='0.29 / W' sa=0 sb=0 sd=0 mult=4 m=4
XM42 Vmid Vmid AVDD AVDD sky130_fd_pr__pfet_g5v0d10v5 L=8 W=4 nf=1 ad='int((nf+1)/2) * W/nf * 0.29' as='int((nf+2)/2) * W/nf * 0.29'
+ pd='2*int((nf+1)/2) * (W/nf + 0.29)' ps='2*int((nf+2)/2) * (W/nf + 0.29)' nrd='0.29 / W' nrs='0.29 / W'
+ sa=0 sb=0 sd=0 mult=2 m=2
XM46 Vtrim_p trim3_hv Vmid AVDD sky130_fd_pr__pfet_g5v0d10v5 L=0.5 W=4 nf=1 ad='int((nf+1)/2) * W/nf * 0.29'
+ as='int((nf+2)/2) * W/nf * 0.29' pd='2*int((nf+1)/2) * (W/nf + 0.29)' ps='2*int((nf+2)/2) * (W/nf + 0.29)'
+ nrd='0.29 / W' nrs='0.29 / W' sa=0 sb=0 sd=0 mult=8 m=8
XM35 Vtrim_m bias_n AGND AGND sky130_fd_pr__nfet_g5v0d10v5 L=8 W=2 nf=1 ad='int((nf+1)/2) * W/nf * 0.29'
+ as='int((nf+2)/2) * W/nf * 0.29' pd='2*int((nf+1)/2) * (W/nf + 0.29)' ps='2*int((nf+2)/2) * (W/nf + 0.29)'
+ nrd='0.29 / W' nrs='0.29 / W' sa=0 sb=0 sd=0 mult=1 m=1
XM37 Vtrim_p bias_n AGND AGND sky130_fd_pr__nfet_g5v0d10v5 L=8 W=2 nf=1 ad='int((nf+1)/2) * W/nf * 0.29'
+ as='int((nf+2)/2) * W/nf * 0.29' pd='2*int((nf+1)/2) * (W/nf + 0.29)' ps='2*int((nf+2)/2) * (W/nf + 0.29)'
+ nrd='0.29 / W' nrs='0.29 / W' sa=0 sb=0 sd=0 mult=1 m=1
XM41 net19 trim2_hv Vmid AVDD sky130_fd_pr__pfet_g5v0d10v5 L=0.5 W=4 nf=1 ad='int((nf+1)/2) * W/nf * 0.29'
+ as='int((nf+2)/2) * W/nf * 0.29' pd='2*int((nf+1)/2) * (W/nf + 0.29)' ps='2*int((nf+2)/2) * (W/nf + 0.29)'
+ nrd='0.29 / W' nrs='0.29 / W' sa=0 sb=0 sd=0 mult=8 m=8
XM43 net20 trim1_hv net19 AVDD sky130_fd_pr__pfet_g5v0d10v5 L=0.5 W=4 nf=1 ad='int((nf+1)/2) * W/nf * 0.29'
+ as='int((nf+2)/2) * W/nf * 0.29' pd='2*int((nf+1)/2) * (W/nf + 0.29)' ps='2*int((nf+2)/2) * (W/nf + 0.29)'
+ nrd='0.29 / W' nrs='0.29 / W' sa=0 sb=0 sd=0 mult=8 m=8
XM47 Vtrim_p trim0_hv net20 AVDD sky130_fd_pr__pfet_g5v0d10v5 L=0.5 W=4 nf=1 ad='int((nf+1)/2) * W/nf * 0.29'
+ as='int((nf+2)/2) * W/nf * 0.29' pd='2*int((nf+1)/2) * (W/nf + 0.29)' ps='2*int((nf+2)/2) * (W/nf + 0.29)'
+ nrd='0.29 / W' nrs='0.29 / W' sa=0 sb=0 sd=0 mult=8 m=8
XM50 Vtrim_m trim3b_hv Vmid AVDD sky130_fd_pr__pfet_g5v0d10v5 L=0.5 W=4 nf=1 ad='int((nf+1)/2) * W/nf * 0.29'
+ as='int((nf+2)/2) * W/nf * 0.29' pd='2*int((nf+1)/2) * (W/nf + 0.29)' ps='2*int((nf+2)/2) * (W/nf + 0.29)'
+ nrd='0.29 / W' nrs='0.29 / W' sa=0 sb=0 sd=0 mult=8 m=8
XM51 net21 trim2_hv Vmid AVDD sky130_fd_pr__pfet_g5v0d10v5 L=0.5 W=4 nf=1 ad='int((nf+1)/2) * W/nf * 0.29'
+ as='int((nf+2)/2) * W/nf * 0.29' pd='2*int((nf+1)/2) * (W/nf + 0.29)' ps='2*int((nf+2)/2) * (W/nf + 0.29)'
+ nrd='0.29 / W' nrs='0.29 / W' sa=0 sb=0 sd=0 mult=8 m=8
XM52 net22 trim1_hv net21 AVDD sky130_fd_pr__pfet_g5v0d10v5 L=0.5 W=4 nf=1 ad='int((nf+1)/2) * W/nf * 0.29'
+ as='int((nf+2)/2) * W/nf * 0.29' pd='2*int((nf+1)/2) * (W/nf + 0.29)' ps='2*int((nf+2)/2) * (W/nf + 0.29)'
+ nrd='0.29 / W' nrs='0.29 / W' sa=0 sb=0 sd=0 mult=8 m=8
XM55 Vtrim_m trim0_hv net22 AVDD sky130_fd_pr__pfet_g5v0d10v5 L=0.5 W=4 nf=1 ad='int((nf+1)/2) * W/nf * 0.29'
+ as='int((nf+2)/2) * W/nf * 0.29' pd='2*int((nf+1)/2) * (W/nf + 0.29)' ps='2*int((nf+2)/2) * (W/nf + 0.29)'
+ nrd='0.29 / W' nrs='0.29 / W' sa=0 sb=0 sd=0 mult=8 m=8
x1 AVDD DVDD DGND trim3b_hv trim3_hv trim[3] AGND level_shifter_up
XM87 bias_var_p en_hv AVDD AVDD sky130_fd_pr__pfet_g5v0d10v5 L=0.5 W=4 nf=2 ad='int((nf+1)/2) * W/nf * 0.29'