** sch_path: /foss/designs/sky130_ak_ip__comparator/xschem/tb_comparator_hysteresis.sch
**.subckt tb_comparator_hysteresis
Vtrim3 trim[3] GND 0
.save i(vtrim3)
Vp Vinp Vinm pulse(-100m 100m 0 5m 5m 1m 20m)
.save i(vp)
VDD_ANA net1 GND 3.3
.save i(vdd_ana)
VDD_DIG net2 GND 1.8
.save i(vdd_dig)
Ibias GND bias 400n
C3 Vout GND 1p m=1
Vtrim2 trim[2] GND 0
.save i(vtrim2)
Vtrim1 trim[1] GND 0
.save i(vtrim1)
Vtrim0 trim[0] GND 0
.save i(vtrim0)
Vm Vinm GND 1
.save i(vm)
Vhyst1 hyst[1] GND 1.8
.save i(vhyst1)
Vhyst0 hyst[0] GND 1.8
.save i(vhyst0)
Venable enable GND 1.8
.save i(venable)
Vmeas_AVDD net1 AVDD 0
.save i(vmeas_avdd)
Vmeas_DVDD net2 DVDD 0
.save i(vmeas_dvdd)
x1 DVDD AVDD GND GND Vinp Vout Vinm enable hyst[1] hyst[0] trim[3] trim[2] trim[1] trim[0] bias
+ comparator
E1 Vin_diff GND Vinp Vinm 1
**** begin user architecture code

.param mc_mm_switch=0
.param mc_pr_switch=0
.include /foss/pdks/sky130A/libs.tech/ngspice/corners/sf.spice
.include /foss/pdks/sky130A/libs.tech/ngspice/r+c/res_typical__cap_typical.spice
.include /foss/pdks/sky130A/libs.tech/ngspice/r+c/res_typical__cap_typical__lin.spice
.include /foss/pdks/sky130A/libs.tech/ngspice/corners/sf/specialized_cells.spice



.save all
.tran 10u 11m

.control
let num_meas = 27
let input_offset_rise = unitvec(num_meas)
let input_offset_fall = unitvec(num_meas)
let i = 0
foreach temp_val -40 27 85
   set temp=$temp_val
   foreach vdd_ana_val 2.95 3.3 5.5
      alter VDD_ANA $vdd_ana_val
      foreach vm_val 0.1 {$vdd_ana_val/2} {-0.1+$vdd_ana_val}
         alter Vm $vm_val
         run
         meas tran t_cross when v(vout)=0.9 rise=1
         meas tran in_cross find v(vin_diff) at=t_cross
         meas tran t_cross_fall when v(vout)=0.9 fall=1
         meas tran in_cross_fall find v(vin_diff) at=t_cross_fall
         let input_offset_rise[i] = in_cross
         let input_offset_fall[i] = in_cross_fall
         let i = i+1
      end
   end
end
plot tran1.v(vout) tran2.v(vout) tran3.v(vout) tran4.v(vout) tran5.v(vout) tran6.v(vout)
+ tran7.v(vout) tran8.v(vout) tran9.v(vout) tran10.v(vout) tran11.v(vout) tran12.v(vout) tran13.v(vout)
+ tran14.v(vout) tran15.v(vout) tran16.v(vout) tran16.v(vout) tran17.v(vout) tran18.v(vout)
*plot dc1.v(vout) dc2.v(vout) dc3.v(vout) dc4.v(vout) dc5.v(vout) dc6.v(vout) dc7.v(vout)
*+ dc8.v(vout) dc9.v(vout) dc10.v(vout) dc11.v(vout) dc12.v(vout) dc13.v(vout) dc14.v(vout) dc15.v(vout)
*+ dc16.v(vout) dc17.v(vout) dc18.v(vout) dc19.v(vout) dc20.v(vout) dc21.v(vout) dc22.v(vout) dc23.v(vout)
*+ dc24.v(vout) dc25.v(vout) dc26.v(vout) dc27.v(vout)
plot tran1.v(vin_diff)
set filetype = ascii
*write results.raw input_offset
print vecmin(input_offset_rise)
print vecmax(input_offset_rise)
print vecmin(input_offset_fall)
print vecmax(input_offset_fall)
.endc


**** end user architecture code
**.ends

* expanding   symbol:  comparator.sym # of pins=11
** sym_path: /foss/designs/sky130_ak_ip__comparator/xschem/comparator.sym
** sch_path: /foss/designs/sky130_ak_ip__comparator/xschem/comparator.sch
.subckt comparator DVDD AVDD AGND DGND Vinp Vout Vinm en hyst[1] hyst[0] trim[3] trim[2] trim[1]
+ trim[0] ibias
*.ipin Vinp
*.ipin Vinm
*.ipin AVDD
*.ipin AGND
*.ipin en
*.ipin hyst[1],hyst[0]
*.ipin trim[3],trim[2],trim[1],trim[0]
*.opin Vout
*.ipin DVDD
*.ipin ibias
*.ipin DGND
XM7 bias_n bias_n AGND AGND sky130_fd_pr__nfet_g5v0d10v5 L=8 W=2 nf=1 ad='int((nf+1)/2) * W/nf * 0.29'
+ as='int((nf+2)/2) * W/nf * 0.29' pd='2*int((nf+1)/2) * (W/nf + 0.29)' ps='2*int((nf+2)/2) * (W/nf + 0.29)'
+ nrd='0.29 / W' nrs='0.29 / W' sa=0 sb=0 sd=0 mult=2 m=2
XM6 net3 Vinm Vxm AGND sky130_fd_pr__nfet_g5v0d10v5 L=1 W=8 nf=1 ad='int((nf+1)/2) * W/nf * 0.29' as='int((nf+2)/2) * W/nf * 0.29'
+ pd='2*int((nf+1)/2) * (W/nf + 0.29)' ps='2*int((nf+2)/2) * (W/nf + 0.29)' nrd='0.29 / W' nrs='0.29 / W'
+ sa=0 sb=0 sd=0 mult=32 m=32
XM2 net1 bias_n AGND AGND sky130_fd_pr__nfet_g5v0d10v5 L=8 W=2 nf=1 ad='int((nf+1)/2) * W/nf * 0.29'
+ as='int((nf+2)/2) * W/nf * 0.29' pd='2*int((nf+1)/2) * (W/nf + 0.29)' ps='2*int((nf+2)/2) * (W/nf + 0.29)'
+ nrd='0.29 / W' nrs='0.29 / W' sa=0 sb=0 sd=0 mult=8 m=8
XM1 net2 Vinp Vxm AGND sky130_fd_pr__nfet_g5v0d10v5 L=1 W=8 nf=1 ad='int((nf+1)/2) * W/nf * 0.29' as='int((nf+2)/2) * W/nf * 0.29'
+ pd='2*int((nf+1)/2) * (W/nf + 0.29)' ps='2*int((nf+2)/2) * (W/nf + 0.29)' nrd='0.29 / W' nrs='0.29 / W'
+ sa=0 sb=0 sd=0 mult=32 m=32
XM4 net9 bias_var_p AVDD AVDD sky130_fd_pr__pfet_g5v0d10v5 L=8 W=4 nf=1 ad='int((nf+1)/2) * W/nf * 0.29'
+ as='int((nf+2)/2) * W/nf * 0.29' pd='2*int((nf+1)/2) * (W/nf + 0.29)' ps='2*int((nf+2)/2) * (W/nf + 0.29)'
+ nrd='0.29 / W' nrs='0.29 / W' sa=0 sb=0 sd=0 mult=8 m=8
XM5 net5 Vinm Vxp AVDD sky130_fd_pr__pfet_g5v0d10v5 L=1 W=8 nf=2 ad='int((nf+1)/2) * W/nf * 0.29' as='int((nf+2)/2) * W/nf * 0.29'
+ pd='2*int((nf+1)/2) * (W/nf + 0.29)' ps='2*int((nf+2)/2) * (W/nf + 0.29)' nrd='0.29 / W' nrs='0.29 / W'
+ sa=0 sb=0 sd=0 mult=32 m=32
XM17 net4 Vinp Vxp AVDD sky130_fd_pr__pfet_g5v0d10v5 L=1 W=8 nf=2 ad='int((nf+1)/2) * W/nf * 0.29' as='int((nf+2)/2) * W/nf * 0.29'
+ pd='2*int((nf+1)/2) * (W/nf + 0.29)' ps='2*int((nf+2)/2) * (W/nf + 0.29)' nrd='0.29 / W' nrs='0.29 / W'
+ sa=0 sb=0 sd=0 mult=32 m=32
XM22 net6 bias_p AVDD AVDD sky130_fd_pr__pfet_g5v0d10v5 L=8 W=4 nf=2 ad='int((nf+1)/2) * W/nf * 0.29'
+ as='int((nf+2)/2) * W/nf * 0.29' pd='2*int((nf+1)/2) * (W/nf + 0.29)' ps='2*int((nf+2)/2) * (W/nf + 0.29)'
+ nrd='0.29 / W' nrs='0.29 / W' sa=0 sb=0 sd=0 mult=2 m=2
XM23 Vom_stg2 Vop net6 AVDD sky130_fd_pr__pfet_g5v0d10v5 L=1 W=4 nf=2 ad='int((nf+1)/2) * W/nf * 0.29'
+ as='int((nf+2)/2) * W/nf * 0.29' pd='2*int((nf+1)/2) * (W/nf + 0.29)' ps='2*int((nf+2)/2) * (W/nf + 0.29)'
+ nrd='0.29 / W' nrs='0.29 / W' sa=0 sb=0 sd=0 mult=4 m=4
XM24 Vop_stg2 Vom net6 AVDD sky130_fd_pr__pfet_g5v0d10v5 L=1 W=4 nf=2 ad='int((nf+1)/2) * W/nf * 0.29'
+ as='int((nf+2)/2) * W/nf * 0.29' pd='2*int((nf+1)/2) * (W/nf + 0.29)' ps='2*int((nf+2)/2) * (W/nf + 0.29)'
+ nrd='0.29 / W' nrs='0.29 / W' sa=0 sb=0 sd=0 mult=4 m=4
XM25 Vop_stg2 Vop_stg2 DGND DGND sky130_fd_pr__nfet_g5v0d10v5 L=1 W=2 nf=1 ad='int((nf+1)/2) * W/nf * 0.29'
+ as='int((nf+2)/2) * W/nf * 0.29' pd='2*int((nf+1)/2) * (W/nf + 0.29)' ps='2*int((nf+2)/2) * (W/nf + 0.29)'
+ nrd='0.29 / W' nrs='0.29 / W' sa=0 sb=0 sd=0 mult=2 m=2
XM26 Vom_stg2 Vom_stg2 DGND DGND sky130_fd_pr__nfet_g5v0d10v5 L=1 W=2 nf=1 ad='int((nf+1)/2) * W/nf * 0.29'
+ as='int((nf+2)/2) * W/nf * 0.29' pd='2*int((nf+1)/2) * (W/nf + 0.29)' ps='2*int((nf+2)/2) * (W/nf + 0.29)'
+ nrd='0.29 / W' nrs='0.29 / W' sa=0 sb=0 sd=0 mult=2 m=2
XM27 net7 Vom_stg2 DGND DGND sky130_fd_pr__nfet_g5v0d10v5 L=1 W=2 nf=1 ad='int((nf+1)/2) * W/nf * 0.29'
+ as='int((nf+2)/2) * W/nf * 0.29' pd='2*int((nf+1)/2) * (W/nf + 0.29)' ps='2*int((nf+2)/2) * (W/nf + 0.29)'
+ nrd='0.29 / W' nrs='0.29 / W' sa=0 sb=0 sd=0 mult=2 m=2
XM28 Vdiff Vop_stg2 DGND DGND sky130_fd_pr__nfet_g5v0d10v5 L=1 W=2 nf=1 ad='int((nf+1)/2) * W/nf * 0.29'
+ as='int((nf+2)/2) * W/nf * 0.29' pd='2*int((nf+1)/2) * (W/nf + 0.29)' ps='2*int((nf+2)/2) * (W/nf + 0.29)'
+ nrd='0.29 / W' nrs='0.29 / W' sa=0 sb=0 sd=0 mult=2 m=2
XM29 Vdiff net7 DVDD DVDD sky130_fd_pr__pfet_01v8 L=1 W=4 nf=1 ad='int((nf+1)/2) * W/nf * 0.29' as='int((nf+2)/2) * W/nf * 0.29'
+ pd='2*int((nf+1)/2) * (W/nf + 0.29)' ps='2*int((nf+2)/2) * (W/nf + 0.29)' nrd='0.29 / W' nrs='0.29 / W'
+ sa=0 sb=0 sd=0 mult=2 m=2
XM30 net7 net7 DVDD DVDD sky130_fd_pr__pfet_01v8 L=1 W=4 nf=1 ad='int((nf+1)/2) * W/nf * 0.29' as='int((nf+2)/2) * W/nf * 0.29'
+ pd='2*int((nf+1)/2) * (W/nf + 0.29)' ps='2*int((nf+2)/2) * (W/nf + 0.29)' nrd='0.29 / W' nrs='0.29 / W'
+ sa=0 sb=0 sd=0 mult=2 m=2
XM31 Vout Vdiff DVDD DVDD sky130_fd_pr__pfet_01v8 L=0.15 W=1 nf=2 ad='int((nf+1)/2) * W/nf * 0.29' as='int((nf+2)/2) * W/nf * 0.29'
+ pd='2*int((nf+1)/2) * (W/nf + 0.29)' ps='2*int((nf+2)/2) * (W/nf + 0.29)' nrd='0.29 / W' nrs='0.29 / W'
+ sa=0 sb=0 sd=0 mult=1 m=1
XM44 Vout Vdiff DGND DGND sky130_fd_pr__nfet_01v8 L=0.15 W=0.5 nf=1 ad='int((nf+1)/2) * W/nf * 0.29'
+ as='int((nf+2)/2) * W/nf * 0.29' pd='2*int((nf+1)/2) * (W/nf + 0.29)' ps='2*int((nf+2)/2) * (W/nf + 0.29)'
+ nrd='0.29 / W' nrs='0.29 / W' sa=0 sb=0 sd=0 mult=1 m=1
XM45 ibias ibias bias_n AGND sky130_fd_pr__nfet_g5v0d10v5 L=8 W=1 nf=1 ad='int((nf+1)/2) * W/nf * 0.29'
+ as='int((nf+2)/2) * W/nf * 0.29' pd='2*int((nf+1)/2) * (W/nf + 0.29)' ps='2*int((nf+2)/2) * (W/nf + 0.29)'
+ nrd='0.29 / W' nrs='0.29 / W' sa=0 sb=0 sd=0 mult=1 m=1
XM48 bias_n enb_hv AGND AGND sky130_fd_pr__nfet_g5v0d10v5 L=0.5 W=2 nf=1 ad='int((nf+1)/2) * W/nf * 0.29'
+ as='int((nf+2)/2) * W/nf * 0.29' pd='2*int((nf+1)/2) * (W/nf + 0.29)' ps='2*int((nf+2)/2) * (W/nf + 0.29)'
+ nrd='0.29 / W' nrs='0.29 / W' sa=0 sb=0 sd=0 mult=4 m=4
XM40 net17 bias_hyst net10 AGND sky130_fd_pr__nfet_g5v0d10v5 L=8 W=2 nf=1 ad='int((nf+1)/2) * W/nf * 0.29'
+ as='int((nf+2)/2) * W/nf * 0.29' pd='2*int((nf+1)/2) * (W/nf + 0.29)' ps='2*int((nf+2)/2) * (W/nf + 0.29)'
+ nrd='0.29 / W' nrs='0.29 / W' sa=0 sb=0 sd=0 mult=3 m=3
XM53 Vfold_p DVDD net40 AGND sky130_fd_pr__nfet_g5v0d10v5 L=1 W=2 nf=1 ad='int((nf+1)/2) * W/nf * 0.29'
+ as='int((nf+2)/2) * W/nf * 0.29' pd='2*int((nf+1)/2) * (W/nf + 0.29)' ps='2*int((nf+2)/2) * (W/nf + 0.29)'
+ nrd='0.29 / W' nrs='0.29 / W' sa=0 sb=0 sd=0 mult=4 m=4
XM54 Vfold_m DGND net40 AGND sky130_fd_pr__nfet_g5v0d10v5 L=1 W=2 nf=1 ad='int((nf+1)/2) * W/nf * 0.29'
+ as='int((nf+2)/2) * W/nf * 0.29' pd='2*int((nf+1)/2) * (W/nf + 0.29)' ps='2*int((nf+2)/2) * (W/nf + 0.29)'
+ nrd='0.29 / W' nrs='0.29 / W' sa=0 sb=0 sd=0 mult=4 m=4
XM73 net18 bias_hyst net39 AGND sky130_fd_pr__nfet_g5v0d10v5 L=8 W=2 nf=1 ad='int((nf+1)/2) * W/nf * 0.29'
+ as='int((nf+2)/2) * W/nf * 0.29' pd='2*int((nf+1)/2) * (W/nf + 0.29)' ps='2*int((nf+2)/2) * (W/nf + 0.29)'
+ nrd='0.29 / W' nrs='0.29 / W' sa=0 sb=0 sd=0 mult=1 m=1
XM75 Voutb Vout DVDD DVDD sky130_fd_pr__pfet_01v8 L=0.15 W=1 nf=2 ad='int((nf+1)/2) * W/nf * 0.29' as='int((nf+2)/2) * W/nf * 0.29'
+ pd='2*int((nf+1)/2) * (W/nf + 0.29)' ps='2*int((nf+2)/2) * (W/nf + 0.29)' nrd='0.29 / W' nrs='0.29 / W'
+ sa=0 sb=0 sd=0 mult=1 m=1
XM76 Voutb Vout DGND DGND sky130_fd_pr__nfet_01v8 L=0.15 W=0.5 nf=1 ad='int((nf+1)/2) * W/nf * 0.29'
+ as='int((nf+2)/2) * W/nf * 0.29' pd='2*int((nf+1)/2) * (W/nf + 0.29)' ps='2*int((nf+2)/2) * (W/nf + 0.29)'
+ nrd='0.29 / W' nrs='0.29 / W' sa=0 sb=0 sd=0 mult=1 m=1
XM77 net8 bias_p AVDD AVDD sky130_fd_pr__pfet_g5v0d10v5 L=8 W=4 nf=1 ad='int((nf+1)/2) * W/nf * 0.29'
+ as='int((nf+2)/2) * W/nf * 0.29' pd='2*int((nf+1)/2) * (W/nf + 0.29)' ps='2*int((nf+2)/2) * (W/nf + 0.29)'
+ nrd='0.29 / W' nrs='0.29 / W' sa=0 sb=0 sd=0 mult=1 m=1
XM78 bias_hyst bias_hyst AGND AGND sky130_fd_pr__nfet_g5v0d10v5 L=8 W=2 nf=1 ad='int((nf+1)/2) * W/nf * 0.29'
+ as='int((nf+2)/2) * W/nf * 0.29' pd='2*int((nf+1)/2) * (W/nf + 0.29)' ps='2*int((nf+2)/2) * (W/nf + 0.29)'
+ nrd='0.29 / W' nrs='0.29 / W' sa=0 sb=0 sd=0 mult=2 m=2
XM79 bias_hyst casc_p net8 AVDD sky130_fd_pr__pfet_g5v0d10v5 L=1 W=4 nf=1 ad='int((nf+1)/2) * W/nf * 0.29'
+ as='int((nf+2)/2) * W/nf * 0.29' pd='2*int((nf+1)/2) * (W/nf + 0.29)' ps='2*int((nf+2)/2) * (W/nf + 0.29)'
+ nrd='0.29 / W' nrs='0.29 / W' sa=0 sb=0 sd=0 mult=1 m=1
XM90 Vxm casc_n net1 AGND sky130_fd_pr__nfet_g5v0d10v5 L=1 W=2 nf=1 ad='int((nf+1)/2) * W/nf * 0.29'
+ as='int((nf+2)/2) * W/nf * 0.29' pd='2*int((nf+1)/2) * (W/nf + 0.29)' ps='2*int((nf+2)/2) * (W/nf + 0.29)'
+ nrd='0.29 / W' nrs='0.29 / W' sa=0 sb=0 sd=0 mult=8 m=8
XM91 Vxp casc_p net9 AVDD sky130_fd_pr__pfet_g5v0d10v5 L=1 W=4 nf=1 ad='int((nf+1)/2) * W/nf * 0.29'
+ as='int((nf+2)/2) * W/nf * 0.29' pd='2*int((nf+1)/2) * (W/nf + 0.29)' ps='2*int((nf+2)/2) * (W/nf + 0.29)'
+ nrd='0.29 / W' nrs='0.29 / W' sa=0 sb=0 sd=0 mult=8 m=8
XM94 net16 bias_n AGND AGND sky130_fd_pr__nfet_g5v0d10v5 L=8 W=2 nf=1 ad='int((nf+1)/2) * W/nf * 0.29'
+ as='int((nf+2)/2) * W/nf * 0.29' pd='2*int((nf+1)/2) * (W/nf + 0.29)' ps='2*int((nf+2)/2) * (W/nf + 0.29)'
+ nrd='0.29 / W' nrs='0.29 / W' sa=0 sb=0 sd=0 mult=2 m=2
XM95 bias_p bias_p AVDD AVDD sky130_fd_pr__pfet_g5v0d10v5 L=8 W=4 nf=1 ad='int((nf+1)/2) * W/nf * 0.29'
+ as='int((nf+2)/2) * W/nf * 0.29' pd='2*int((nf+1)/2) * (W/nf + 0.29)' ps='2*int((nf+2)/2) * (W/nf + 0.29)'
+ nrd='0.29 / W' nrs='0.29 / W' sa=0 sb=0 sd=0 mult=2 m=2
XM16 net10 hyst1_hv AGND AGND sky130_fd_pr__nfet_g5v0d10v5 L=0.5 W=2 nf=1 ad='int((nf+1)/2) * W/nf * 0.29'
+ as='int((nf+2)/2) * W/nf * 0.29' pd='2*int((nf+1)/2) * (W/nf + 0.29)' ps='2*int((nf+2)/2) * (W/nf + 0.29)'
+ nrd='0.29 / W' nrs='0.29 / W' sa=0 sb=0 sd=0 mult=3 m=3
XM33 net39 hyst0_hv AGND AGND sky130_fd_pr__nfet_g5v0d10v5 L=0.5 W=2 nf=1 ad='int((nf+1)/2) * W/nf * 0.29'
+ as='int((nf+2)/2) * W/nf * 0.29' pd='2*int((nf+1)/2) * (W/nf + 0.29)' ps='2*int((nf+2)/2) * (W/nf + 0.29)'
+ nrd='0.29 / W' nrs='0.29 / W' sa=0 sb=0 sd=0 mult=1 m=1
XM67 Vop_stg2 Vom_stg2 DGND DGND sky130_fd_pr__nfet_g5v0d10v5 L=0.5 W=1 nf=1 ad='int((nf+1)/2) * W/nf * 0.29'
+ as='int((nf+2)/2) * W/nf * 0.29' pd='2*int((nf+1)/2) * (W/nf + 0.29)' ps='2*int((nf+2)/2) * (W/nf + 0.29)'
+ nrd='0.29 / W' nrs='0.29 / W' sa=0 sb=0 sd=0 mult=1 m=1
XM69 Vom_stg2 Vop_stg2 DGND DGND sky130_fd_pr__nfet_g5v0d10v5 L=0.5 W=1 nf=1 ad='int((nf+1)/2) * W/nf * 0.29'
+ as='int((nf+2)/2) * W/nf * 0.29' pd='2*int((nf+1)/2) * (W/nf + 0.29)' ps='2*int((nf+2)/2) * (W/nf + 0.29)'
+ nrd='0.29 / W' nrs='0.29 / W' sa=0 sb=0 sd=0 mult=1 m=1
XM15 bias_p en_hv AVDD AVDD sky130_fd_pr__pfet_g5v0d10v5 L=0.5 W=4 nf=2 ad='int((nf+1)/2) * W/nf * 0.29'
+ as='int((nf+2)/2) * W/nf * 0.29' pd='2*int((nf+1)/2) * (W/nf + 0.29)' ps='2*int((nf+2)/2) * (W/nf + 0.29)'
+ nrd='0.29 / W' nrs='0.29 / W' sa=0 sb=0 sd=0 mult=4 m=4
x2 AVDD DVDD DGND trim2b_hv trim2_hv trim[2] AGND level_shifter_up
x4 AVDD DVDD DGND trim1b_hv trim1_hv trim[1] AGND level_shifter_up
x5 AVDD DVDD DGND trim0b_hv trim0_hv trim[0] AGND level_shifter_up
x6 AVDD DVDD DGND enb_hv en_hv en AGND level_shifter_up
x7 AVDD DVDD DGND hyst1b_hv hyst1_hv hyst[1] AGND level_shifter_up
x8 AVDD DVDD DGND hyst0b_hv hyst0_hv hyst[0] AGND level_shifter_up
XM32 Vdiff enb_hv DGND DGND sky130_fd_pr__nfet_g5v0d10v5 L=0.5 W=2 nf=1 ad='int((nf+1)/2) * W/nf * 0.29'
+ as='int((nf+2)/2) * W/nf * 0.29' pd='2*int((nf+1)/2) * (W/nf + 0.29)' ps='2*int((nf+2)/2) * (W/nf + 0.29)'
+ nrd='0.29 / W' nrs='0.29 / W' sa=0 sb=0 sd=0 mult=4 m=4
XM34 casc_n bias_n AGND AGND sky130_fd_pr__nfet_g5v0d10v5 L=8 W=2 nf=1 ad='int((nf+1)/2) * W/nf * 0.29'
+ as='int((nf+2)/2) * W/nf * 0.29' pd='2*int((nf+1)/2) * (W/nf + 0.29)' ps='2*int((nf+2)/2) * (W/nf + 0.29)'
+ nrd='0.29 / W' nrs='0.29 / W' sa=0 sb=0 sd=0 mult=1 m=1
XM36 AVDD ibias casc_n AGND sky130_fd_pr__nfet_g5v0d10v5 L=1 W=2 nf=1 ad='int((nf+1)/2) * W/nf * 0.29'
+ as='int((nf+2)/2) * W/nf * 0.29' pd='2*int((nf+1)/2) * (W/nf + 0.29)' ps='2*int((nf+2)/2) * (W/nf + 0.29)'
+ nrd='0.29 / W' nrs='0.29 / W' sa=0 sb=0 sd=0 mult=1 m=1
XM3 Vfold_bot_p cmfb AGND AGND sky130_fd_pr__nfet_g5v0d10v5 L=8 W=2 nf=1 ad='int((nf+1)/2) * W/nf * 0.29'
+ as='int((nf+2)/2) * W/nf * 0.29' pd='2*int((nf+1)/2) * (W/nf + 0.29)' ps='2*int((nf+2)/2) * (W/nf + 0.29)'
+ nrd='0.29 / W' nrs='0.29 / W' sa=0 sb=0 sd=0 mult=3 m=3
XM9 Vfold_p bias_p AVDD AVDD sky130_fd_pr__pfet_g5v0d10v5 L=8 W=4 nf=1 ad='int((nf+1)/2) * W/nf * 0.29'
+ as='int((nf+2)/2) * W/nf * 0.29' pd='2*int((nf+1)/2) * (W/nf + 0.29)' ps='2*int((nf+2)/2) * (W/nf + 0.29)'
+ nrd='0.29 / W' nrs='0.29 / W' sa=0 sb=0 sd=0 mult=2 m=2
XM10 Vfold_p bias_var_p2 AVDD AVDD sky130_fd_pr__pfet_g5v0d10v5 L=8 W=4 nf=1 ad='int((nf+1)/2) * W/nf * 0.29'
+ as='int((nf+2)/2) * W/nf * 0.29' pd='2*int((nf+1)/2) * (W/nf + 0.29)' ps='2*int((nf+2)/2) * (W/nf + 0.29)'
+ nrd='0.29 / W' nrs='0.29 / W' sa=0 sb=0 sd=0 mult=4 m=4
XM13 Vfold_bot_p bias_var_n AGND AGND sky130_fd_pr__nfet_g5v0d10v5 L=8 W=2 nf=1 ad='int((nf+1)/2) * W/nf * 0.29'
+ as='int((nf+2)/2) * W/nf * 0.29' pd='2*int((nf+1)/2) * (W/nf + 0.29)' ps='2*int((nf+2)/2) * (W/nf + 0.29)'
+ nrd='0.29 / W' nrs='0.29 / W' sa=0 sb=0 sd=0 mult=4 m=4
XM19 Vop casc_p Vfold_p AVDD sky130_fd_pr__pfet_g5v0d10v5 L=1 W=4 nf=1 ad='int((nf+1)/2) * W/nf * 0.29'
+ as='int((nf+2)/2) * W/nf * 0.29' pd='2*int((nf+1)/2) * (W/nf + 0.29)' ps='2*int((nf+2)/2) * (W/nf + 0.29)'
+ nrd='0.29 / W' nrs='0.29 / W' sa=0 sb=0 sd=0 mult=6 m=6
XM21 Vop casc_n Vfold_bot_p AGND sky130_fd_pr__nfet_g5v0d10v5 L=1 W=2 nf=1 ad='int((nf+1)/2) * W/nf * 0.29'
+ as='int((nf+2)/2) * W/nf * 0.29' pd='2*int((nf+1)/2) * (W/nf + 0.29)' ps='2*int((nf+2)/2) * (W/nf + 0.29)'
+ nrd='0.29 / W' nrs='0.29 / W' sa=0 sb=0 sd=0 mult=6 m=6
XM38 test Vinm net11 AGND sky130_fd_pr__nfet_g5v0d10v5 L=2 W=8 nf=1 ad='int((nf+1)/2) * W/nf * 0.29'
+ as='int((nf+2)/2) * W/nf * 0.29' pd='2*int((nf+1)/2) * (W/nf + 0.29)' ps='2*int((nf+2)/2) * (W/nf + 0.29)'
+ nrd='0.29 / W' nrs='0.29 / W' sa=0 sb=0 sd=0 mult=2 m=2
XM39 test Vinp net11 AGND sky130_fd_pr__nfet_g5v0d10v5 L=2 W=8 nf=1 ad='int((nf+1)/2) * W/nf * 0.29'
+ as='int((nf+2)/2) * W/nf * 0.29' pd='2*int((nf+1)/2) * (W/nf + 0.29)' ps='2*int((nf+2)/2) * (W/nf + 0.29)'
+ nrd='0.29 / W' nrs='0.29 / W' sa=0 sb=0 sd=0 mult=2 m=2
XM49 test bias_var_p2 AVDD AVDD sky130_fd_pr__pfet_g5v0d10v5 L=8 W=4 nf=1 ad='int((nf+1)/2) * W/nf * 0.29'
+ as='int((nf+2)/2) * W/nf * 0.29' pd='2*int((nf+1)/2) * (W/nf + 0.29)' ps='2*int((nf+2)/2) * (W/nf + 0.29)'
+ nrd='0.29 / W' nrs='0.29 / W' sa=0 sb=0 sd=0 mult=1 m=1
XM60 net15 bias_var_p2 AVDD AVDD sky130_fd_pr__pfet_g5v0d10v5 L=8 W=4 nf=1 ad='int((nf+1)/2) * W/nf * 0.29'
+ as='int((nf+2)/2) * W/nf * 0.29' pd='2*int((nf+1)/2) * (W/nf + 0.29)' ps='2*int((nf+2)/2) * (W/nf + 0.29)'
+ nrd='0.29 / W' nrs='0.29 / W' sa=0 sb=0 sd=0 mult=1 m=1
XM61 net14 bias_n AGND AGND sky130_fd_pr__nfet_g5v0d10v5 L=8 W=2 nf=1 ad='int((nf+1)/2) * W/nf * 0.29'
+ as='int((nf+2)/2) * W/nf * 0.29' pd='2*int((nf+1)/2) * (W/nf + 0.29)' ps='2*int((nf+2)/2) * (W/nf + 0.29)'
+ nrd='0.29 / W' nrs='0.29 / W' sa=0 sb=0 sd=0 mult=1 m=1
XM62 bias_var_p bias_var_p AVDD AVDD sky130_fd_pr__pfet_g5v0d10v5 L=8 W=4 nf=1 ad='int((nf+1)/2) * W/nf * 0.29'
+ as='int((nf+2)/2) * W/nf * 0.29' pd='2*int((nf+1)/2) * (W/nf + 0.29)' ps='2*int((nf+2)/2) * (W/nf + 0.29)'
+ nrd='0.29 / W' nrs='0.29 / W' sa=0 sb=0 sd=0 mult=1 m=1
XM68 bias_var_n bias_var_p AVDD AVDD sky130_fd_pr__pfet_g5v0d10v5 L=8 W=4 nf=1 ad='int((nf+1)/2) * W/nf * 0.29'
+ as='int((nf+2)/2) * W/nf * 0.29' pd='2*int((nf+1)/2) * (W/nf + 0.29)' ps='2*int((nf+2)/2) * (W/nf + 0.29)'
+ nrd='0.29 / W' nrs='0.29 / W' sa=0 sb=0 sd=0 mult=1 m=1
XM70 bias_var_n bias_var_n AGND AGND sky130_fd_pr__nfet_g5v0d10v5 L=8 W=2 nf=1 ad='int((nf+1)/2) * W/nf * 0.29'
+ as='int((nf+2)/2) * W/nf * 0.29' pd='2*int((nf+1)/2) * (W/nf + 0.29)' ps='2*int((nf+2)/2) * (W/nf + 0.29)'
+ nrd='0.29 / W' nrs='0.29 / W' sa=0 sb=0 sd=0 mult=1 m=1
XM8 Vfold_bot_m bias_var_n AGND AGND sky130_fd_pr__nfet_g5v0d10v5 L=8 W=2 nf=1 ad='int((nf+1)/2) * W/nf * 0.29'
+ as='int((nf+2)/2) * W/nf * 0.29' pd='2*int((nf+1)/2) * (W/nf + 0.29)' ps='2*int((nf+2)/2) * (W/nf + 0.29)'
+ nrd='0.29 / W' nrs='0.29 / W' sa=0 sb=0 sd=0 mult=4 m=4
XM11 Vfold_m bias_var_p2 AVDD AVDD sky130_fd_pr__pfet_g5v0d10v5 L=8 W=4 nf=1 ad='int((nf+1)/2) * W/nf * 0.29'
+ as='int((nf+2)/2) * W/nf * 0.29' pd='2*int((nf+1)/2) * (W/nf + 0.29)' ps='2*int((nf+2)/2) * (W/nf + 0.29)'
+ nrd='0.29 / W' nrs='0.29 / W' sa=0 sb=0 sd=0 mult=4 m=4
XM12 Vfold_m bias_p AVDD AVDD sky130_fd_pr__pfet_g5v0d10v5 L=8 W=4 nf=1 ad='int((nf+1)/2) * W/nf * 0.29'
+ as='int((nf+2)/2) * W/nf * 0.29' pd='2*int((nf+1)/2) * (W/nf + 0.29)' ps='2*int((nf+2)/2) * (W/nf + 0.29)'
+ nrd='0.29 / W' nrs='0.29 / W' sa=0 sb=0 sd=0 mult=2 m=2
XM14 Vfold_bot_m cmfb AGND AGND sky130_fd_pr__nfet_g5v0d10v5 L=8 W=2 nf=1 ad='int((nf+1)/2) * W/nf * 0.29'
+ as='int((nf+2)/2) * W/nf * 0.29' pd='2*int((nf+1)/2) * (W/nf + 0.29)' ps='2*int((nf+2)/2) * (W/nf + 0.29)'
+ nrd='0.29 / W' nrs='0.29 / W' sa=0 sb=0 sd=0 mult=3 m=3
XM18 Vom casc_p Vfold_m AVDD sky130_fd_pr__pfet_g5v0d10v5 L=1 W=4 nf=1 ad='int((nf+1)/2) * W/nf * 0.29'
+ as='int((nf+2)/2) * W/nf * 0.29' pd='2*int((nf+1)/2) * (W/nf + 0.29)' ps='2*int((nf+2)/2) * (W/nf + 0.29)'
+ nrd='0.29 / W' nrs='0.29 / W' sa=0 sb=0 sd=0 mult=6 m=6
XM20 Vom casc_n Vfold_bot_m AGND sky130_fd_pr__nfet_g5v0d10v5 L=1 W=2 nf=1 ad='int((nf+1)/2) * W/nf * 0.29'
+ as='int((nf+2)/2) * W/nf * 0.29' pd='2*int((nf+1)/2) * (W/nf + 0.29)' ps='2*int((nf+2)/2) * (W/nf + 0.29)'
+ nrd='0.29 / W' nrs='0.29 / W' sa=0 sb=0 sd=0 mult=6 m=6
XM64 net12 bias_cmfb AVDD AVDD sky130_fd_pr__pfet_g5v0d10v5 L=2 W=4 nf=1 ad='int((nf+1)/2) * W/nf * 0.29'
+ as='int((nf+2)/2) * W/nf * 0.29' pd='2*int((nf+1)/2) * (W/nf + 0.29)' ps='2*int((nf+2)/2) * (W/nf + 0.29)'
+ nrd='0.29 / W' nrs='0.29 / W' sa=0 sb=0 sd=0 mult=4 m=4
XM71 cmfb_b Vom net12 AVDD sky130_fd_pr__pfet_g5v0d10v5 L=4 W=1 nf=1 ad='int((nf+1)/2) * W/nf * 0.29'
+ as='int((nf+2)/2) * W/nf * 0.29' pd='2*int((nf+1)/2) * (W/nf + 0.29)' ps='2*int((nf+2)/2) * (W/nf + 0.29)'
+ nrd='0.29 / W' nrs='0.29 / W' sa=0 sb=0 sd=0 mult=1 m=1
XM72 cmfb Vcm net12 AVDD sky130_fd_pr__pfet_g5v0d10v5 L=4 W=1 nf=1 ad='int((nf+1)/2) * W/nf * 0.29' as='int((nf+2)/2) * W/nf * 0.29'
+ pd='2*int((nf+1)/2) * (W/nf + 0.29)' ps='2*int((nf+2)/2) * (W/nf + 0.29)' nrd='0.29 / W' nrs='0.29 / W'
+ sa=0 sb=0 sd=0 mult=4 m=4
XM74 cmfb cmfb AGND AGND sky130_fd_pr__nfet_g5v0d10v5 L=2 W=2 nf=1 ad='int((nf+1)/2) * W/nf * 0.29' as='int((nf+2)/2) * W/nf * 0.29'
+ pd='2*int((nf+1)/2) * (W/nf + 0.29)' ps='2*int((nf+2)/2) * (W/nf + 0.29)' nrd='0.29 / W' nrs='0.29 / W'
+ sa=0 sb=0 sd=0 mult=2 m=2
XM80 cmfb_b cmfb_b AGND AGND sky130_fd_pr__nfet_g5v0d10v5 L=2 W=2 nf=1 ad='int((nf+1)/2) * W/nf * 0.29'
+ as='int((nf+2)/2) * W/nf * 0.29' pd='2*int((nf+1)/2) * (W/nf + 0.29)' ps='2*int((nf+2)/2) * (W/nf + 0.29)'
+ nrd='0.29 / W' nrs='0.29 / W' sa=0 sb=0 sd=0 mult=2 m=2
XM81 cmfb Vcm net13 AVDD sky130_fd_pr__pfet_g5v0d10v5 L=4 W=1 nf=1 ad='int((nf+1)/2) * W/nf * 0.29' as='int((nf+2)/2) * W/nf * 0.29'
+ pd='2*int((nf+1)/2) * (W/nf + 0.29)' ps='2*int((nf+2)/2) * (W/nf + 0.29)' nrd='0.29 / W' nrs='0.29 / W'
+ sa=0 sb=0 sd=0 mult=1 m=1
XM82 net13 bias_cmfb AVDD AVDD sky130_fd_pr__pfet_g5v0d10v5 L=2 W=4 nf=1 ad='int((nf+1)/2) * W/nf * 0.29'
+ as='int((nf+2)/2) * W/nf * 0.29' pd='2*int((nf+1)/2) * (W/nf + 0.29)' ps='2*int((nf+2)/2) * (W/nf + 0.29)'
+ nrd='0.29 / W' nrs='0.29 / W' sa=0 sb=0 sd=0 mult=4 m=4
XM83 cmfb_b Vop net13 AVDD sky130_fd_pr__pfet_g5v0d10v5 L=4 W=1 nf=1 ad='int((nf+1)/2) * W/nf * 0.29'
+ as='int((nf+2)/2) * W/nf * 0.29' pd='2*int((nf+1)/2) * (W/nf + 0.29)' ps='2*int((nf+2)/2) * (W/nf + 0.29)'
+ nrd='0.29 / W' nrs='0.29 / W' sa=0 sb=0 sd=0 mult=1 m=1
XM84 bias_var_p casc_n net14 AGND sky130_fd_pr__nfet_g5v0d10v5 L=1 W=2 nf=1 ad='int((nf+1)/2) * W/nf * 0.29'
+ as='int((nf+2)/2) * W/nf * 0.29' pd='2*int((nf+1)/2) * (W/nf + 0.29)' ps='2*int((nf+2)/2) * (W/nf + 0.29)'
+ nrd='0.29 / W' nrs='0.29 / W' sa=0 sb=0 sd=0 mult=1 m=1
XM85 bias_var_p casc_p net15 AVDD sky130_fd_pr__pfet_g5v0d10v5 L=1 W=4 nf=1 ad='int((nf+1)/2) * W/nf * 0.29'
+ as='int((nf+2)/2) * W/nf * 0.29' pd='2*int((nf+1)/2) * (W/nf + 0.29)' ps='2*int((nf+2)/2) * (W/nf + 0.29)'
+ nrd='0.29 / W' nrs='0.29 / W' sa=0 sb=0 sd=0 mult=1 m=1
XM86 bias_p casc_n net16 AGND sky130_fd_pr__nfet_g5v0d10v5 L=1 W=2 nf=1 ad='int((nf+1)/2) * W/nf * 0.29'
+ as='int((nf+2)/2) * W/nf * 0.29' pd='2*int((nf+1)/2) * (W/nf + 0.29)' ps='2*int((nf+2)/2) * (W/nf + 0.29)'
+ nrd='0.29 / W' nrs='0.29 / W' sa=0 sb=0 sd=0 mult=2 m=2
XM88 net40 casc_n net17 AGND sky130_fd_pr__nfet_g5v0d10v5 L=1 W=2 nf=1 ad='int((nf+1)/2) * W/nf * 0.29'
+ as='int((nf+2)/2) * W/nf * 0.29' pd='2*int((nf+1)/2) * (W/nf + 0.29)' ps='2*int((nf+2)/2) * (W/nf + 0.29)'
+ nrd='0.29 / W' nrs='0.29 / W' sa=0 sb=0 sd=0 mult=3 m=3
XM89 Vfold_p Vtrim_m net20 AGND sky130_fd_pr__nfet_g5v0d10v5 L=2 W=8 nf=1 ad='int((nf+1)/2) * W/nf * 0.29'
+ as='int((nf+2)/2) * W/nf * 0.29' pd='2*int((nf+1)/2) * (W/nf + 0.29)' ps='2*int((nf+2)/2) * (W/nf + 0.29)'
+ nrd='0.29 / W' nrs='0.29 / W' sa=0 sb=0 sd=0 mult=4 m=4
XM92 net19 AGND AGND AGND sky130_fd_pr__nfet_g5v0d10v5 L=8 W=2 nf=1 ad='int((nf+1)/2) * W/nf * 0.29'
+ as='int((nf+2)/2) * W/nf * 0.29' pd='2*int((nf+1)/2) * (W/nf + 0.29)' ps='2*int((nf+2)/2) * (W/nf + 0.29)'
+ nrd='0.29 / W' nrs='0.29 / W' sa=0 sb=0 sd=0 mult=1 m=1
XM93 Vfold_m Vtrim_p net20 AGND sky130_fd_pr__nfet_g5v0d10v5 L=2 W=8 nf=1 ad='int((nf+1)/2) * W/nf * 0.29'
+ as='int((nf+2)/2) * W/nf * 0.29' pd='2*int((nf+1)/2) * (W/nf + 0.29)' ps='2*int((nf+2)/2) * (W/nf + 0.29)'
+ nrd='0.29 / W' nrs='0.29 / W' sa=0 sb=0 sd=0 mult=4 m=4
XM97 net20 casc_n net19 AGND sky130_fd_pr__nfet_g5v0d10v5 L=1 W=2 nf=1 ad='int((nf+1)/2) * W/nf * 0.29'
+ as='int((nf+2)/2) * W/nf * 0.29' pd='2*int((nf+1)/2) * (W/nf + 0.29)' ps='2*int((nf+2)/2) * (W/nf + 0.29)'
+ nrd='0.29 / W' nrs='0.29 / W' sa=0 sb=0 sd=0 mult=1 m=1
XM42 Vmid Vmid AVDD AVDD sky130_fd_pr__pfet_g5v0d10v5 L=8 W=4 nf=1 ad='int((nf+1)/2) * W/nf * 0.29' as='int((nf+2)/2) * W/nf * 0.29'
+ pd='2*int((nf+1)/2) * (W/nf + 0.29)' ps='2*int((nf+2)/2) * (W/nf + 0.29)' nrd='0.29 / W' nrs='0.29 / W'
+ sa=0 sb=0 sd=0 mult=2 m=2
XM46 Vtrim_p trim3_hv Vmid AVDD sky130_fd_pr__pfet_g5v0d10v5 L=0.5 W=4 nf=1 ad='int((nf+1)/2) * W/nf * 0.29'
+ as='int((nf+2)/2) * W/nf * 0.29' pd='2*int((nf+1)/2) * (W/nf + 0.29)' ps='2*int((nf+2)/2) * (W/nf + 0.29)'
+ nrd='0.29 / W' nrs='0.29 / W' sa=0 sb=0 sd=0 mult=8 m=8
XM35 Vtrim_m bias_n AGND AGND sky130_fd_pr__nfet_g5v0d10v5 L=8 W=2 nf=1 ad='int((nf+1)/2) * W/nf * 0.29'
+ as='int((nf+2)/2) * W/nf * 0.29' pd='2*int((nf+1)/2) * (W/nf + 0.29)' ps='2*int((nf+2)/2) * (W/nf + 0.29)'
+ nrd='0.29 / W' nrs='0.29 / W' sa=0 sb=0 sd=0 mult=1 m=1
XM37 Vtrim_p bias_n AGND AGND sky130_fd_pr__nfet_g5v0d10v5 L=8 W=2 nf=1 ad='int((nf+1)/2) * W/nf * 0.29'
+ as='int((nf+2)/2) * W/nf * 0.29' pd='2*int((nf+1)/2) * (W/nf + 0.29)' ps='2*int((nf+2)/2) * (W/nf + 0.29)'
+ nrd='0.29 / W' nrs='0.29 / W' sa=0 sb=0 sd=0 mult=1 m=1
XM41 net21 trim2_hv Vmid AVDD sky130_fd_pr__pfet_g5v0d10v5 L=0.5 W=4 nf=1 ad='int((nf+1)/2) * W/nf * 0.29'
+ as='int((nf+2)/2) * W/nf * 0.29' pd='2*int((nf+1)/2) * (W/nf + 0.29)' ps='2*int((nf+2)/2) * (W/nf + 0.29)'
+ nrd='0.29 / W' nrs='0.29 / W' sa=0 sb=0 sd=0 mult=8 m=8
XM43 net22 trim1_hv net21 AVDD sky130_fd_pr__pfet_g5v0d10v5 L=0.5 W=4 nf=1 ad='int((nf+1)/2) * W/nf * 0.29'
+ as='int((nf+2)/2) * W/nf * 0.29' pd='2*int((nf+1)/2) * (W/nf + 0.29)' ps='2*int((nf+2)/2) * (W/nf + 0.29)'
+ nrd='0.29 / W' nrs='0.29 / W' sa=0 sb=0 sd=0 mult=8 m=8
XM47 Vtrim_p trim0_hv net22 AVDD sky130_fd_pr__pfet_g5v0d10v5 L=0.5 W=4 nf=1 ad='int((nf+1)/2) * W/nf * 0.29'
+ as='int((nf+2)/2) * W/nf * 0.29' pd='2*int((nf+1)/2) * (W/nf + 0.29)' ps='2*int((nf+2)/2) * (W/nf + 0.29)'
+ nrd='0.29 / W' nrs='0.29 / W' sa=0 sb=0 sd=0 mult=8 m=8
XM50 Vtrim_m trim3b_hv Vmid AVDD sky130_fd_pr__pfet_g5v0d10v5 L=0.5 W=4 nf=1 ad='int((nf+1)/2) * W/nf * 0.29'
+ as='int((nf+2)/2) * W/nf * 0.29' pd='2*int((nf+1)/2) * (W/nf + 0.29)' ps='2*int((nf+2)/2) * (W/nf + 0.29)'
+ nrd='0.29 / W' nrs='0.29 / W' sa=0 sb=0 sd=0 mult=8 m=8
XM51 net23 trim2_hv Vmid AVDD sky130_fd_pr__pfet_g5v0d10v5 L=0.5 W=4 nf=1 ad='int((nf+1)/2) * W/nf * 0.29'
+ as='int((nf+2)/2) * W/nf * 0.29' pd='2*int((nf+1)/2) * (W/nf + 0.29)' ps='2*int((nf+2)/2) * (W/nf + 0.29)'
+ nrd='0.29 / W' nrs='0.29 / W' sa=0 sb=0 sd=0 mult=8 m=8
XM52 net24 trim1_hv net23 AVDD sky130_fd_pr__pfet_g5v0d10v5 L=0.5 W=4 nf=1 ad='int((nf+1)/2) * W/nf * 0.29'
+ as='int((nf+2)/2) * W/nf * 0.29' pd='2*int((nf+1)/2) * (W/nf + 0.29)' ps='2*int((nf+2)/2) * (W/nf + 0.29)'
+ nrd='0.29 / W' nrs='0.29 / W' sa=0 sb=0 sd=0 mult=8 m=8
XM55 Vtrim_m trim0_hv net24 AVDD sky130_fd_pr__pfet_g5v0d10v5 L=0.5 W=4 nf=1 ad='int((nf+1)/2) * W/nf * 0.29'
+ as='int((nf+2)/2) * W/nf * 0.29' pd='2*int((nf+1)/2) * (W/nf + 0.29)' ps='2*int((nf+2)/2) * (W/nf + 0.29)'
+ nrd='0.29 / W' nrs='0.29 / W' sa=0 sb=0 sd=0 mult=8 m=8
x1 AVDD DVDD DGND trim3b_hv trim3_hv trim[3] AGND level_shifter_up
XM87 bias_var_p en_hv AVDD AVDD sky130_fd_pr__pfet_g5v0d10v5 L=0.5 W=4 nf=2 ad='int((nf+1)/2) * W/nf * 0.29'
+ as='int((nf+2)/2) * W/nf * 0.29' pd='2*int((nf+1)/2) * (W/nf + 0.29)' ps='2*int((nf+2)/2) * (W/nf + 0.29)'
+ nrd='0.29 / W' nrs='0.29 / W' sa=0 sb=0 sd=0 mult=4 m=4
XM98 bias_var_n enb_hv AGND AGND sky130_fd_pr__nfet_g5v0d10v5 L=0.5 W=2 nf=1 ad='int((nf+1)/2) * W/nf * 0.29'
+ as='int((nf+2)/2) * W/nf * 0.29' pd='2*int((nf+1)/2) * (W/nf + 0.29)' ps='2*int((nf+2)/2) * (W/nf + 0.29)'
+ nrd='0.29 / W' nrs='0.29 / W' sa=0 sb=0 sd=0 mult=4 m=4
XM100 bias_var_p2 en_hv AVDD AVDD sky130_fd_pr__pfet_g5v0d10v5 L=0.5 W=4 nf=2 ad='int((nf+1)/2) * W/nf * 0.29'
+ as='int((nf+2)/2) * W/nf * 0.29' pd='2*int((nf+1)/2) * (W/nf + 0.29)' ps='2*int((nf+2)/2) * (W/nf + 0.29)'
+ nrd='0.29 / W' nrs='0.29 / W' sa=0 sb=0 sd=0 mult=4 m=4
XM63 net35 bias_n net31 AGND sky130_fd_pr__nfet_g5v0d10v5 L=8 W=0.5 nf=1 ad='int((nf+1)/2) * W/nf * 0.29'
+ as='int((nf+2)/2) * W/nf * 0.29' pd='2*int((nf+1)/2) * (W/nf + 0.29)' ps='2*int((nf+2)/2) * (W/nf + 0.29)'
+ nrd='0.29 / W' nrs='0.29 / W' sa=0 sb=0 sd=0 mult=1 m=1
XM99 net25 net26 AVDD AVDD sky130_fd_pr__pfet_g5v0d10v5 L=8 W=4 nf=1 ad='int((nf+1)/2) * W/nf * 0.29'
+ as='int((nf+2)/2) * W/nf * 0.29' pd='2*int((nf+1)/2) * (W/nf + 0.29)' ps='2*int((nf+2)/2) * (W/nf + 0.29)'
+ nrd='0.29 / W' nrs='0.29 / W' sa=0 sb=0 sd=0 mult=1 m=1
XM101 net27 bias_n AGND AGND sky130_fd_pr__nfet_g5v0d10v5 L=8 W=2 nf=1 ad='int((nf+1)/2) * W/nf * 0.29'
+ as='int((nf+2)/2) * W/nf * 0.29' pd='2*int((nf+1)/2) * (W/nf + 0.29)' ps='2*int((nf+2)/2) * (W/nf + 0.29)'
+ nrd='0.29 / W' nrs='0.29 / W' sa=0 sb=0 sd=0 mult=1 m=1
XM102 net26 net26 net25 AVDD sky130_fd_pr__pfet_g5v0d10v5 L=1 W=4 nf=1 ad='int((nf+1)/2) * W/nf * 0.29'
+ as='int((nf+2)/2) * W/nf * 0.29' pd='2*int((nf+1)/2) * (W/nf + 0.29)' ps='2*int((nf+2)/2) * (W/nf + 0.29)'
+ nrd='0.29 / W' nrs='0.29 / W' sa=0 sb=0 sd=0 mult=2 m=2
XM103 casc_p casc_p net25 AVDD sky130_fd_pr__pfet_g5v0d10v5 L=8 W=4 nf=1 ad='int((nf+1)/2) * W/nf * 0.29'
+ as='int((nf+2)/2) * W/nf * 0.29' pd='2*int((nf+1)/2) * (W/nf + 0.29)' ps='2*int((nf+2)/2) * (W/nf + 0.29)'
+ nrd='0.29 / W' nrs='0.29 / W' sa=0 sb=0 sd=0 mult=1 m=1
XM104 casc_p casc_n net27 AGND sky130_fd_pr__nfet_g5v0d10v5 L=1 W=2 nf=1 ad='int((nf+1)/2) * W/nf * 0.29'