* NGSPICE file created from comparator_rcx.ext - technology: sky130A

.subckt comparator_rcx Vinp Vinm AGND en hyst[1] hyst[0] trim[5] trim[4] trim[3] trim[2]
+ trim[1] trim[0] Vout ibias DVDD AVDD DGND
X0 a_1659_n4497.t93 casc_n.t37 Vxm.t67 DGND sky130_fd_pr__nfet_g5v0d10v5 ad=0p pd=0u as=0p ps=0u w=2e+06u l=1e+06u
X1 AVDD.t706 AVDD.t704 AVDD.t705 AVDD.t401 sky130_fd_pr__pfet_g5v0d10v5 ad=0p pd=0u as=0p ps=0u w=2e+06u l=1e+06u
X2 a_1657_n21342.t154 a_1560_n22142.t10 AVDD.t327 AVDD.t203 sky130_fd_pr__pfet_g5v0d10v5 ad=0p pd=0u as=0p ps=0u w=2e+06u l=4e+06u
X3 Vom.t79 casc_p.t70 a_2458_5328.t113 AVDD.t68 sky130_fd_pr__pfet_g5v0d10v5 ad=0p pd=0u as=0p ps=0u w=2e+06u l=1e+06u
X4 a_1659_n4497.t92 casc_n.t38 Vxm.t68 DGND sky130_fd_pr__nfet_g5v0d10v5 ad=0p pd=0u as=0p ps=0u w=2e+06u l=1e+06u
X5 a_2458_5328.t67 a_12760_n20342.t5 AVDD.t251 AVDD.t68 sky130_fd_pr__pfet_g5v0d10v5 ad=0p pd=0u as=0p ps=0u w=2e+06u l=4e+06u
X6 casc_p.t63 casc_p.t61 casc_p.t62 AVDD.t91 sky130_fd_pr__pfet_g5v0d10v5 ad=0p pd=0u as=0p ps=0u w=2e+06u l=1e+06u
X7 a_2467_n29152.t5 a_2370_n29452.t8 Vfold_bot_m.t18 AVDD.t47 sky130_fd_pr__pfet_g5v0d10v5 ad=0p pd=0u as=0p ps=0u w=8e+06u l=1.5e+06u
X8 a_1659_n4497.t91 casc_n.t39 Vxm.t69 DGND sky130_fd_pr__nfet_g5v0d10v5 ad=0p pd=0u as=0p ps=0u w=2e+06u l=1e+06u
X9 Vom.t78 casc_p.t71 a_2458_5328.t112 AVDD.t70 sky130_fd_pr__pfet_g5v0d10v5 ad=0p pd=0u as=0p ps=0u w=2e+06u l=1e+06u
X10 Vop.t79 casc_p.t72 a_2458_6128.t159 AVDD.t72 sky130_fd_pr__pfet_g5v0d10v5 ad=0p pd=0u as=0p ps=0u w=2e+06u l=1e+06u
X11 Vxp.t136 casc_p.t73 a_1657_n21342.t155 AVDD.t155 sky130_fd_pr__pfet_g5v0d10v5 ad=0p pd=0u as=0p ps=0u w=2e+06u l=1e+06u
X12 level_shifter_up_8.x_hv a_34648_11527# DGND DGND sky130_fd_pr__nfet_g5v0d10v5 ad=2.9e+11p pd=2.58e+06u as=3.103e+14p ps=2.34242e+09u w=1e+06u l=500000u
X13 a_23013_n25097.t15 casc_p.t74 a_33657_n21342.t2 AVDD.t21 sky130_fd_pr__pfet_g5v0d10v5 ad=0p pd=0u as=0p ps=0u w=2e+06u l=1e+06u
X14 a_2458_6128.t86 bias_p.t11 AVDD.t277 AVDD.t148 sky130_fd_pr__pfet_g5v0d10v5 ad=0p pd=0u as=0p ps=0u w=2e+06u l=4e+06u
X15 a_2458_6128.t87 bias_p.t12 AVDD.t278 AVDD.t5 sky130_fd_pr__pfet_g5v0d10v5 ad=0p pd=0u as=0p ps=0u w=2e+06u l=4e+06u
X16 Vop.t78 casc_p.t75 a_2458_6128.t158 AVDD.t74 sky130_fd_pr__pfet_g5v0d10v5 ad=0p pd=0u as=0p ps=0u w=2e+06u l=1e+06u
X17 Vxp.t135 casc_p.t76 a_1657_n21342.t156 AVDD.t172 sky130_fd_pr__pfet_g5v0d10v5 ad=0p pd=0u as=0p ps=0u w=2e+06u l=1e+06u
X18 a_2467_n30310.t108 casc_n.t40 Vop.t109 DGND sky130_fd_pr__nfet_g5v0d10v5 ad=0p pd=0u as=0p ps=0u w=2e+06u l=1e+06u
X19 Vfold_bot_m.t104 casc_n.t41 Vom.t119 DGND sky130_fd_pr__nfet_g5v0d10v5 ad=0p pd=0u as=0p ps=0u w=2e+06u l=1e+06u
X20 a_32057_n15000.t33 level_shifter_up_0.xb_hv.t2 AVDD.t288 AVDD.t287 sky130_fd_pr__pfet_g5v0d10v5 ad=0p pd=0u as=0p ps=0u w=2e+06u l=500000u
X21 a_32059_n897.t11 casc_n.t42 a_2458_6570.t11 DGND sky130_fd_pr__nfet_g5v0d10v5 ad=0p pd=0u as=0p ps=0u w=2e+06u l=1e+06u
X22 casc_n.t36 casc_n.t34 casc_n.t35 DGND sky130_fd_pr__nfet_g5v0d10v5 ad=0p pd=0u as=0p ps=0u w=2e+06u l=1e+06u
X23 a_1657_n21342.t153 a_1560_n22142.t11 AVDD.t328 AVDD.t163 sky130_fd_pr__pfet_g5v0d10v5 ad=0p pd=0u as=0p ps=0u w=2e+06u l=4e+06u
X24 AVDD.t703 AVDD.t701 AVDD.t702 AVDD.t366 sky130_fd_pr__pfet_g5v0d10v5 ad=0p pd=0u as=0p ps=0u w=8e+06u l=1.5e+06u
X25 a_2458_5328.t193 bias_p.t13 AVDD.t805 AVDD.t7 sky130_fd_pr__pfet_g5v0d10v5 ad=0p pd=0u as=0p ps=0u w=2e+06u l=4e+06u
X26 Vop.t77 casc_p.t77 a_2458_6128.t136 AVDD.t64 sky130_fd_pr__pfet_g5v0d10v5 ad=0p pd=0u as=0p ps=0u w=2e+06u l=1e+06u
X27 AVDD.t700 AVDD.t698 AVDD.t699 AVDD.t374 sky130_fd_pr__pfet_g5v0d10v5 ad=0p pd=0u as=0p ps=0u w=2e+06u l=1e+06u
X28 a_2458_5328.t0 Vinp.t0 Vxm.t0 DGND sky130_fd_pr__nfet_g5v0d10v5 ad=0p pd=0u as=0p ps=0u w=8e+06u l=1.5e+06u
X29 AVDD.t697 AVDD.t695 AVDD.t696 AVDD.t130 sky130_fd_pr__pfet_g5v0d10v5 ad=0p pd=0u as=0p ps=0u w=2e+06u l=4e+06u
X30 a_2458_6128.t61 a_12760_n20342.t6 AVDD.t252 AVDD.t64 sky130_fd_pr__pfet_g5v0d10v5 ad=0p pd=0u as=0p ps=0u w=2e+06u l=4e+06u
X31 AVDD.t694 AVDD.t692 AVDD.t693 AVDD.t374 sky130_fd_pr__pfet_g5v0d10v5 ad=0p pd=0u as=0p ps=0u w=2e+06u l=4e+06u
X32 AVDD.t691 AVDD.t689 AVDD.t690 AVDD.t370 sky130_fd_pr__pfet_g5v0d10v5 ad=0p pd=0u as=0p ps=0u w=2e+06u l=1e+06u
X33 Vom.t77 casc_p.t78 a_2458_5328.t111 AVDD.t64 sky130_fd_pr__pfet_g5v0d10v5 ad=0p pd=0u as=0p ps=0u w=2e+06u l=1e+06u
X34 DGND bias_var_n bias_var_n DGND sky130_fd_pr__nfet_g5v0d10v5 ad=0p pd=0u as=1.16e+12p ps=9.16e+06u w=2e+06u l=4e+06u
X35 a_32057_n13616.t16 casc_p.t79 a_32057_n8742.t10 AVDD.t21 sky130_fd_pr__pfet_g5v0d10v5 ad=0p pd=0u as=0p ps=0u w=2e+06u l=1e+06u
X36 a_11160_n9542.t3 a_11160_n9542.t2 a_11257_n8742.t5 AVDD.t130 sky130_fd_pr__pfet_g5v0d10v5 ad=0p pd=0u as=0p ps=0u w=2e+06u l=1e+06u
X37 AVDD.t688 AVDD.t686 AVDD.t687 AVDD.t24 sky130_fd_pr__pfet_g5v0d10v5 ad=0p pd=0u as=0p ps=0u w=8e+06u l=1.5e+06u
X38 Vop.t76 casc_p.t80 a_2458_6128.t135 AVDD.t72 sky130_fd_pr__pfet_g5v0d10v5 ad=0p pd=0u as=0p ps=0u w=2e+06u l=1e+06u
X39 bias_p bias_p.t1 AVDD.t45 AVDD.t14 sky130_fd_pr__pfet_g5v0d10v5 ad=5.8e+12p pd=4.406e+07u as=0p ps=0u w=2e+06u l=4e+06u
X40 a_23032_4566.t7 level_shifter_up_8.xb_hv.t1 a_2370_6628.t1 AVDD.t36 sky130_fd_pr__pfet_g5v0d10v5 ad=0p pd=0u as=0p ps=0u w=4e+06u l=500000u
X41 Vop.t75 casc_p.t81 a_2458_6128.t134 AVDD.t10 sky130_fd_pr__pfet_g5v0d10v5 ad=0p pd=0u as=0p ps=0u w=2e+06u l=1e+06u
X42 AVDD.t60 level_shifter_up_5.xb_hv.t2 a_32057_n9600.t11 AVDD.t59 sky130_fd_pr__pfet_g5v0d10v5 ad=0p pd=0u as=0p ps=0u w=2e+06u l=500000u
X43 a_31928_n30483# trim[5].t0 DGND DGND sky130_fd_pr__nfet_g5v0d10v5 ad=5.8e+11p pd=5.16e+06u as=0p ps=0u w=1e+06u l=500000u
X44 DGND bias_n.t8 casc_n.t1 DGND sky130_fd_pr__nfet_g5v0d10v5 ad=0p pd=0u as=0p ps=0u w=2e+06u l=4e+06u
X45 a_36328_n30483# trim[3].t0 DGND DGND sky130_fd_pr__nfet_g5v0d10v5 ad=5.8e+11p pd=5.16e+06u as=0p ps=0u w=1e+06u l=500000u
X46 a_32057_n14142.t17 bias_p.t14 a_32057_n15000.t5 AVDD.t147 sky130_fd_pr__pfet_g5v0d10v5 ad=0p pd=0u as=0p ps=0u w=2e+06u l=4e+06u
X47 a_23013_n25097.t21 level_shifter_up_3.x_hv.t2 a_2370_n28652.t3 DGND sky130_fd_pr__nfet_g5v0d10v5 ad=0p pd=0u as=0p ps=0u w=4e+06u l=500000u
X48 casc_n.t33 casc_n.t31 casc_n.t32 DGND sky130_fd_pr__nfet_g5v0d10v5 ad=0p pd=0u as=0p ps=0u w=2e+06u l=1e+06u
X49 Vxp.t3 Vinm.t0 a_2467_n30310.t0 AVDD.t25 sky130_fd_pr__pfet_g5v0d10v5 ad=0p pd=0u as=0p ps=0u w=8e+06u l=1.5e+06u
X50 a_1657_n21342.t152 a_1560_n22142.t12 AVDD.t329 AVDD.t159 sky130_fd_pr__pfet_g5v0d10v5 ad=0p pd=0u as=0p ps=0u w=2e+06u l=4e+06u
X51 Vom.t76 casc_p.t82 a_2458_5328.t151 AVDD.t81 sky130_fd_pr__pfet_g5v0d10v5 ad=0p pd=0u as=0p ps=0u w=2e+06u l=1e+06u
X52 Vom.t75 casc_p.t83 a_2458_5328.t150 AVDD.t15 sky130_fd_pr__pfet_g5v0d10v5 ad=0p pd=0u as=0p ps=0u w=2e+06u l=1e+06u
X53 bias_n.t7 level_shifter_up_4.xb_hv.t2 DGND DGND sky130_fd_pr__nfet_g5v0d10v5 ad=0p pd=0u as=0p ps=0u w=4e+06u l=500000u
X54 a_2458_6128.t189 a_35086_7130.t2 a_32059_n4755.t24 DGND sky130_fd_pr__nfet_g5v0d10v5 ad=0p pd=0u as=0p ps=0u w=2e+06u l=1e+06u
X55 res_p_bot.t6 a_25011_n25097# DGND sky130_fd_pr__res_high_po_2p85 l=3.192e+07u
X56 level_shifter_up_2.x_hv a_34128_n30483# DGND DGND sky130_fd_pr__nfet_g5v0d10v5 ad=2.9e+11p pd=2.58e+06u as=0p ps=0u w=1e+06u l=500000u
X57 a_2458_6128.t60 a_12760_n20342.t7 AVDD.t253 AVDD.t113 sky130_fd_pr__pfet_g5v0d10v5 ad=0p pd=0u as=0p ps=0u w=2e+06u l=4e+06u
X58 a_1659_n4497.t90 casc_n.t43 Vxm.t70 DGND sky130_fd_pr__nfet_g5v0d10v5 ad=0p pd=0u as=0p ps=0u w=2e+06u l=1e+06u
X59 a_2458_5328.t197 a_2370_6628.t8 a_2458_6570.t13 DGND sky130_fd_pr__nfet_g5v0d10v5 ad=0p pd=0u as=0p ps=0u w=8e+06u l=1.5e+06u
X60 a_1659_n4497.t89 casc_n.t44 Vxm.t71 DGND sky130_fd_pr__nfet_g5v0d10v5 ad=0p pd=0u as=0p ps=0u w=2e+06u l=1e+06u
X61 DGND bias_var_n.t7 Vfold_bot_m.t55 DGND sky130_fd_pr__nfet_g5v0d10v5 ad=0p pd=0u as=0p ps=0u w=2e+06u l=4e+06u
X62 Vxp.t4 Vinm.t1 a_2467_n30310.t1 AVDD.t23 sky130_fd_pr__pfet_g5v0d10v5 ad=0p pd=0u as=0p ps=0u w=8e+06u l=1.5e+06u
X63 DGND a_36699_n29829# a_36259_n29829# DGND sky130_fd_pr__nfet_g5v0d10v5 ad=0p pd=0u as=2.9e+11p ps=2.58e+06u w=1e+06u l=500000u
X64 a_2370_6628.t0 level_shifter_up_8.xb_hv.t2 a_23032_4566.t6 AVDD.t37 sky130_fd_pr__pfet_g5v0d10v5 ad=0p pd=0u as=0p ps=0u w=4e+06u l=500000u
X65 a_2458_6128.t5 Vinm.t2 Vxm.t4 DGND sky130_fd_pr__nfet_g5v0d10v5 ad=0p pd=0u as=0p ps=0u w=8e+06u l=1.5e+06u
X66 Vop.t74 casc_p.t84 a_2458_6128.t133 AVDD.t148 sky130_fd_pr__pfet_g5v0d10v5 ad=0p pd=0u as=0p ps=0u w=2e+06u l=1e+06u
X67 AVDD.t685 AVDD.t683 AVDD.t684 AVDD.t394 sky130_fd_pr__pfet_g5v0d10v5 ad=0p pd=0u as=0p ps=0u w=8e+06u l=1.5e+06u
X68 Vop.t73 casc_p.t85 a_2458_6128.t132 AVDD.t125 sky130_fd_pr__pfet_g5v0d10v5 ad=0p pd=0u as=0p ps=0u w=2e+06u l=1e+06u
X69 Vop.t72 casc_p.t86 a_2458_6128.t106 AVDD.t72 sky130_fd_pr__pfet_g5v0d10v5 ad=0p pd=0u as=0p ps=0u w=2e+06u l=1e+06u
X70 a_2458_6128.t59 a_12760_n20342.t8 AVDD.t254 AVDD.t72 sky130_fd_pr__pfet_g5v0d10v5 ad=0p pd=0u as=0p ps=0u w=2e+06u l=4e+06u
X71 DGND.t146 Vop_stg2.t3 a_31098_4670.t2 DGND.t22 sky130_fd_pr__nfet_g5v0d10v5 ad=0p pd=0u as=0p ps=0u w=4e+06u l=1e+06u
X72 a_2467_n30310.t15 a_35086_7130.t3 a_32057_n13616.t1 AVDD.t35 sky130_fd_pr__pfet_g5v0d10v5 ad=0p pd=0u as=0p ps=0u w=4e+06u l=1e+06u
X73 a_2458_5328.t45 bias_p.t15 AVDD.t183 AVDD.t5 sky130_fd_pr__pfet_g5v0d10v5 ad=0p pd=0u as=0p ps=0u w=2e+06u l=4e+06u
X74 a_29757_7018.t0 Vop.t120 Vom_stg2 AVDD.t185 sky130_fd_pr__pfet_g5v0d10v5 ad=0p pd=0u as=1.16e+12p ps=8.58e+06u w=4e+06u l=1e+06u
X75 DGND bias_var_n.t8 Vfold_bot_m.t56 DGND sky130_fd_pr__nfet_g5v0d10v5 ad=0p pd=0u as=0p ps=0u w=2e+06u l=4e+06u
X76 DGND bias_n.t9 a_1659_n4497.t17 DGND sky130_fd_pr__nfet_g5v0d10v5 ad=0p pd=0u as=0p ps=0u w=2e+06u l=4e+06u
X77 AVDD.t682 AVDD.t680 AVDD.t681 AVDD.t34 sky130_fd_pr__pfet_g5v0d10v5 ad=0p pd=0u as=0p ps=0u w=8e+06u l=1.5e+06u
X78 Vop.t71 casc_p.t87 a_2458_6128.t105 AVDD.t74 sky130_fd_pr__pfet_g5v0d10v5 ad=0p pd=0u as=0p ps=0u w=2e+06u l=1e+06u
X79 a_2467_n30310.t16 a_35086_7130.t4 a_32057_n13616.t2 AVDD.t35 sky130_fd_pr__pfet_g5v0d10v5 ad=0p pd=0u as=0p ps=0u w=4e+06u l=1e+06u
X80 a_32059_n4497.t7 casc_n.t45 a_32059_n4755.t15 DGND sky130_fd_pr__nfet_g5v0d10v5 ad=0p pd=0u as=0p ps=0u w=2e+06u l=1e+06u
X81 a_11259_n4497# casc_n.t46 casc_p.t69 DGND sky130_fd_pr__nfet_g5v0d10v5 ad=2.32e+12p pd=1.832e+07u as=0p ps=0u w=2e+06u l=1e+06u
X82 a_2458_6128.t58 a_12760_n20342.t9 AVDD.t255 AVDD.t74 sky130_fd_pr__pfet_g5v0d10v5 ad=0p pd=0u as=0p ps=0u w=2e+06u l=4e+06u
X83 a_1657_n21342.t151 a_1560_n22142.t13 AVDD.t330 AVDD.t163 sky130_fd_pr__pfet_g5v0d10v5 ad=0p pd=0u as=0p ps=0u w=2e+06u l=4e+06u
X84 DGND bias_var_n.t9 a_2467_n30310.t22 DGND sky130_fd_pr__nfet_g5v0d10v5 ad=0p pd=0u as=0p ps=0u w=2e+06u l=4e+06u
X85 AVDD.t815 level_shifter_up_0.xb_hv.t3 a_32057_n15000.t32 AVDD.t814 sky130_fd_pr__pfet_g5v0d10v5 ad=0p pd=0u as=0p ps=0u w=2e+06u l=500000u
X86 a_2458_5328.t46 bias_p.t16 AVDD.t184 AVDD.t7 sky130_fd_pr__pfet_g5v0d10v5 ad=0p pd=0u as=0p ps=0u w=2e+06u l=4e+06u
X87 a_27936_n27260.t3 level_shifter_up_1.xb_hv.t1 a_23013_n25097.t2 DGND sky130_fd_pr__nfet_g5v0d10v5 ad=0p pd=0u as=0p ps=0u w=4e+06u l=500000u
X88 a_12857_n14142.t3 a_12760_n20342.t10 AVDD.t256 AVDD.t130 sky130_fd_pr__pfet_g5v0d10v5 ad=0p pd=0u as=0p ps=0u w=2e+06u l=4e+06u
X89 a_32057_n14142.t16 bias_p.t17 a_32057_n15000.t4 AVDD.t49 sky130_fd_pr__pfet_g5v0d10v5 ad=0p pd=0u as=0p ps=0u w=2e+06u l=4e+06u
X90 a_2458_6128.t69 Vinm.t3 Vxm.t18 DGND sky130_fd_pr__nfet_g5v0d10v5 ad=0p pd=0u as=0p ps=0u w=8e+06u l=1.5e+06u
X91 a_1659_n4497.t88 casc_n.t47 Vxm.t72 DGND sky130_fd_pr__nfet_g5v0d10v5 ad=0p pd=0u as=0p ps=0u w=2e+06u l=1e+06u
X92 Vxp.t0 Vinp.t1 Vfold_bot_m.t0 AVDD.t2 sky130_fd_pr__pfet_g5v0d10v5 ad=0p pd=0u as=0p ps=0u w=8e+06u l=1.5e+06u
X93 DGND bias_var_n.t10 Vfold_bot_m.t15 DGND sky130_fd_pr__nfet_g5v0d10v5 ad=0p pd=0u as=0p ps=0u w=2e+06u l=4e+06u
X94 a_2458_5328.t1 Vinp.t2 Vxm.t1 DGND sky130_fd_pr__nfet_g5v0d10v5 ad=0p pd=0u as=0p ps=0u w=8e+06u l=1.5e+06u
X95 a_1657_n21342.t150 a_1560_n22142.t14 AVDD.t331 AVDD.t168 sky130_fd_pr__pfet_g5v0d10v5 ad=0p pd=0u as=0p ps=0u w=2e+06u l=4e+06u
X96 a_1657_n21342.t149 a_1560_n22142.t15 AVDD.t332 AVDD.t159 sky130_fd_pr__pfet_g5v0d10v5 ad=0p pd=0u as=0p ps=0u w=2e+06u l=4e+06u
X97 a_2370_6628.t4 level_shifter_up_8.x_hv.t1 a_25696_11382.t15 AVDD.t3 sky130_fd_pr__pfet_g5v0d10v5 ad=0p pd=0u as=0p ps=0u w=4e+06u l=500000u
X98 Vop.t70 casc_p.t88 a_2458_6128.t104 AVDD.t85 sky130_fd_pr__pfet_g5v0d10v5 ad=0p pd=0u as=0p ps=0u w=2e+06u l=1e+06u
X99 a_11257_n14142.t3 bias_p.t18 AVDD.t268 AVDD.t14 sky130_fd_pr__pfet_g5v0d10v5 ad=0p pd=0u as=0p ps=0u w=2e+06u l=4e+06u
X100 a_1657_n21342.t148 a_1560_n22142.t16 AVDD.t333 AVDD.t168 sky130_fd_pr__pfet_g5v0d10v5 ad=0p pd=0u as=0p ps=0u w=2e+06u l=4e+06u
X101 Vop.t69 casc_p.t89 a_2458_6128.t103 AVDD.t62 sky130_fd_pr__pfet_g5v0d10v5 ad=0p pd=0u as=0p ps=0u w=2e+06u l=1e+06u
X102 Vop.t68 casc_p.t90 a_2458_6128.t102 AVDD.t10 sky130_fd_pr__pfet_g5v0d10v5 ad=0p pd=0u as=0p ps=0u w=2e+06u l=1e+06u
X103 a_9060_4530.t3 a_12760_n20342.t11 AVDD.t257 AVDD.t93 sky130_fd_pr__pfet_g5v0d10v5 ad=0p pd=0u as=0p ps=0u w=2e+06u l=4e+06u
X104 a_1659_n4497.t87 casc_n.t48 Vxm.t73 DGND sky130_fd_pr__nfet_g5v0d10v5 ad=0p pd=0u as=0p ps=0u w=2e+06u l=1e+06u
X105 a_2458_5328.t185 Vinp.t3 Vxm.t94 DGND sky130_fd_pr__nfet_g5v0d10v5 ad=0p pd=0u as=0p ps=0u w=8e+06u l=1.5e+06u
X106 a_2458_6128.t57 a_12760_n20342.t12 AVDD.t258 AVDD.t62 sky130_fd_pr__pfet_g5v0d10v5 ad=0p pd=0u as=0p ps=0u w=2e+06u l=4e+06u
X107 casc_n.t30 casc_n.t28 casc_n.t29 DGND sky130_fd_pr__nfet_g5v0d10v5 ad=0p pd=0u as=0p ps=0u w=2e+06u l=1e+06u
X108 AVDD.t679 AVDD.t677 AVDD.t678 AVDD.t381 sky130_fd_pr__pfet_g5v0d10v5 ad=0p pd=0u as=0p ps=0u w=2e+06u l=4e+06u
X109 a_32057_n14142.t15 bias_p.t19 a_32057_n15000.t3 AVDD.t147 sky130_fd_pr__pfet_g5v0d10v5 ad=0p pd=0u as=0p ps=0u w=2e+06u l=4e+06u
X110 a_34883_n30483# a_34128_n30483# AVDD.t730 AVDD.t729 sky130_fd_pr__pfet_g5v0d10v5 ad=5.8e+11p pd=4.58e+06u as=0p ps=0u w=2e+06u l=500000u
X111 a_9060_4530.t4 Vinm.t4 a_9060_4172.t0 DGND sky130_fd_pr__nfet_g5v0d10v5 ad=0p pd=0u as=0p ps=0u w=8e+06u l=1.5e+06u
X112 Vom.t74 casc_p.t91 a_2458_5328.t149 AVDD.t113 sky130_fd_pr__pfet_g5v0d10v5 ad=0p pd=0u as=0p ps=0u w=2e+06u l=1e+06u
X113 a_1657_n21342.t147 a_1560_n22142.t17 AVDD.t334 AVDD.t159 sky130_fd_pr__pfet_g5v0d10v5 ad=0p pd=0u as=0p ps=0u w=2e+06u l=4e+06u
X114 a_32059_n4497.t6 casc_n.t49 a_32059_n4755.t14 DGND sky130_fd_pr__nfet_g5v0d10v5 ad=0p pd=0u as=0p ps=0u w=2e+06u l=1e+06u
X115 a_1657_n21342.t146 a_1560_n22142.t18 AVDD.t335 AVDD.t155 sky130_fd_pr__pfet_g5v0d10v5 ad=0p pd=0u as=0p ps=0u w=2e+06u l=4e+06u
X116 AVDD.t676 AVDD.t674 AVDD.t675 AVDD.t401 sky130_fd_pr__pfet_g5v0d10v5 ad=0p pd=0u as=0p ps=0u w=2e+06u l=1e+06u
X117 a_2467_n30310.t107 casc_n.t50 Vop.t108 DGND sky130_fd_pr__nfet_g5v0d10v5 ad=0p pd=0u as=0p ps=0u w=2e+06u l=1e+06u
X118 AVDD.t673 AVDD.t671 AVDD.t672 AVDD.t46 sky130_fd_pr__pfet_g5v0d10v5 ad=0p pd=0u as=0p ps=0u w=8e+06u l=1.5e+06u
X119 a_1659_n4497.t86 casc_n.t51 Vxm.t66 DGND sky130_fd_pr__nfet_g5v0d10v5 ad=0p pd=0u as=0p ps=0u w=2e+06u l=1e+06u
X120 a_32057_n8742.t2 bias_p.t20 a_32057_n9600.t5 AVDD.t48 sky130_fd_pr__pfet_g5v0d10v5 ad=0p pd=0u as=0p ps=0u w=2e+06u l=4e+06u
X121 a_32057_n14142.t14 bias_p.t21 a_32057_n15000.t11 AVDD.t9 sky130_fd_pr__pfet_g5v0d10v5 ad=0p pd=0u as=0p ps=0u w=2e+06u l=4e+06u
X122 a_2458_6128.t56 a_12760_n20342.t13 AVDD.t259 AVDD.t62 sky130_fd_pr__pfet_g5v0d10v5 ad=0p pd=0u as=0p ps=0u w=2e+06u l=4e+06u
X123 a_32057_n8742.t1 bias_p.t22 a_32057_n9600.t4 AVDD.t20 sky130_fd_pr__pfet_g5v0d10v5 ad=0p pd=0u as=0p ps=0u w=2e+06u l=4e+06u
X124 casc_p.t3 casc_p.t2 a_11257_n8742.t11 AVDD.t93 sky130_fd_pr__pfet_g5v0d10v5 ad=0p pd=0u as=0p ps=0u w=2e+06u l=4e+06u
X125 a_2458_5328.t68 a_12760_n20342.t14 AVDD.t260 AVDD.t70 sky130_fd_pr__pfet_g5v0d10v5 ad=0p pd=0u as=0p ps=0u w=2e+06u l=4e+06u
X126 DGND level_shifter_up_5.x_hv.t2 a_33659_n1551.t5 DGND sky130_fd_pr__nfet_g5v0d10v5 ad=0p pd=0u as=0p ps=0u w=2e+06u l=500000u
X127 a_11257_n8742.t7 a_11160_n9542.t13 AVDD.t139 AVDD.t43 sky130_fd_pr__pfet_g5v0d10v5 ad=0p pd=0u as=0p ps=0u w=2e+06u l=4e+06u
X128 a_2467_n30310.t106 casc_n.t52 Vop.t107 DGND sky130_fd_pr__nfet_g5v0d10v5 ad=0p pd=0u as=0p ps=0u w=2e+06u l=1e+06u
X129 a_2458_5328.t97 a_34666_7130.t2 a_32059_n4755.t4 DGND sky130_fd_pr__nfet_g5v0d10v5 ad=0p pd=0u as=0p ps=0u w=2e+06u l=1e+06u
X130 a_1657_n21342.t145 a_1560_n22142.t19 AVDD.t336 AVDD.t157 sky130_fd_pr__pfet_g5v0d10v5 ad=0p pd=0u as=0p ps=0u w=2e+06u l=4e+06u
X131 Vfold_bot_m.t103 casc_n.t53 Vom.t91 DGND sky130_fd_pr__nfet_g5v0d10v5 ad=0p pd=0u as=0p ps=0u w=2e+06u l=1e+06u
X132 DGND bias_n.t10 a_1659_n4497.t18 DGND sky130_fd_pr__nfet_g5v0d10v5 ad=0p pd=0u as=0p ps=0u w=2e+06u l=4e+06u
X133 Vop.t67 casc_p.t92 a_2458_6128.t118 AVDD.t148 sky130_fd_pr__pfet_g5v0d10v5 ad=0p pd=0u as=0p ps=0u w=2e+06u l=1e+06u
X134 a_2458_5328.t69 a_12760_n20342.t15 AVDD.t261 AVDD.t105 sky130_fd_pr__pfet_g5v0d10v5 ad=0p pd=0u as=0p ps=0u w=2e+06u l=4e+06u
X135 Vop.t66 casc_p.t93 a_2458_6128.t117 AVDD.t5 sky130_fd_pr__pfet_g5v0d10v5 ad=0p pd=0u as=0p ps=0u w=2e+06u l=1e+06u
X136 a_1659_n4497.t85 casc_n.t54 Vxm.t87 DGND sky130_fd_pr__nfet_g5v0d10v5 ad=0p pd=0u as=0p ps=0u w=2e+06u l=1e+06u
X137 DGND bias_n.t11 a_1659_n4497.t19 DGND sky130_fd_pr__nfet_g5v0d10v5 ad=0p pd=0u as=0p ps=0u w=2e+06u l=4e+06u
X138 Vxp.t19 Vinm.t5 a_2467_n30310.t21 AVDD.t2 sky130_fd_pr__pfet_g5v0d10v5 ad=0p pd=0u as=0p ps=0u w=8e+06u l=1.5e+06u
X139 a_1657_n21342.t144 a_1560_n22142.t20 AVDD.t337 AVDD.t203 sky130_fd_pr__pfet_g5v0d10v5 ad=0p pd=0u as=0p ps=0u w=2e+06u l=4e+06u
X140 a_23698_4566.t0 a_24364_11382.t0 DGND sky130_fd_pr__res_high_po_2p85 l=3.192e+07u
X141 a_2458_6128.t81 bias_p.t23 AVDD.t269 AVDD.t148 sky130_fd_pr__pfet_g5v0d10v5 ad=0p pd=0u as=0p ps=0u w=2e+06u l=4e+06u
X142 Vxp.t134 casc_p.t94 a_1657_n21342.t176 AVDD.t163 sky130_fd_pr__pfet_g5v0d10v5 ad=0p pd=0u as=0p ps=0u w=2e+06u l=1e+06u
X143 DGND bias_n.t12 a_1659_n4497.t28 DGND sky130_fd_pr__nfet_g5v0d10v5 ad=0p pd=0u as=0p ps=0u w=2e+06u l=4e+06u
X144 DGND bias_n.t13 a_1659_n4497.t29 DGND sky130_fd_pr__nfet_g5v0d10v5 ad=0p pd=0u as=0p ps=0u w=2e+06u l=4e+06u
X145 DGND DGND DGND DGND sky130_fd_pr__nfet_g5v0d10v5 ad=0p pd=0u as=0p ps=0u w=8e+06u l=1.5e+06u
X146 Vom.t73 casc_p.t95 a_2458_5328.t148 AVDD.t7 sky130_fd_pr__pfet_g5v0d10v5 ad=0p pd=0u as=0p ps=0u w=2e+06u l=1e+06u
X147 Vom.t72 casc_p.t96 a_2458_5328.t147 AVDD.t70 sky130_fd_pr__pfet_g5v0d10v5 ad=0p pd=0u as=0p ps=0u w=2e+06u l=1e+06u
X148 a_9060_4530.t7 bias_p.t24 a_11257_n14142.t1 AVDD.t43 sky130_fd_pr__pfet_g5v0d10v5 ad=0p pd=0u as=0p ps=0u w=2e+06u l=4e+06u
X149 DGND DGND DGND DGND sky130_fd_pr__nfet_g5v0d10v5 ad=0p pd=0u as=0p ps=0u w=8e+06u l=1.5e+06u
X150 DGND DGND DGND DGND sky130_fd_pr__nfet_g5v0d10v5 ad=0p pd=0u as=0p ps=0u w=2e+06u l=4e+06u
X151 a_29758_4670.t3 a_29758_4670.t2 DVDD.t7 DVDD.t6 sky130_fd_pr__pfet_01v8 ad=0p pd=0u as=0p ps=0u w=4e+06u l=1e+06u
X152 a_30248_11527# trim[0].t0 AVDD.t740 AVDD.t739 sky130_fd_pr__pfet_g5v0d10v5 ad=1.45e+11p pd=1.58e+06u as=0p ps=0u w=500000u l=2e+06u
X153 a_32057_n14142.t13 bias_p.t25 a_32057_n15000.t10 AVDD.t48 sky130_fd_pr__pfet_g5v0d10v5 ad=0p pd=0u as=0p ps=0u w=2e+06u l=4e+06u
X154 a_2458_5328.t58 a_12760_n20342.t16 AVDD.t232 AVDD.t70 sky130_fd_pr__pfet_g5v0d10v5 ad=0p pd=0u as=0p ps=0u w=2e+06u l=4e+06u
X155 Vxp.t139 Vinm.t6 a_2467_n30310.t66 AVDD.t42 sky130_fd_pr__pfet_g5v0d10v5 ad=0p pd=0u as=0p ps=0u w=8e+06u l=1.5e+06u
X156 DGND DGND DGND DGND sky130_fd_pr__nfet_g5v0d10v5 ad=0p pd=0u as=0p ps=0u w=8e+06u l=1.5e+06u
X157 AVDD.t670 AVDD.t668 AVDD.t669 AVDD.t366 sky130_fd_pr__pfet_g5v0d10v5 ad=0p pd=0u as=0p ps=0u w=8e+06u l=1.5e+06u
X158 a_32057_n14142.t12 bias_p.t26 a_32057_n15000.t9 AVDD.t49 sky130_fd_pr__pfet_g5v0d10v5 ad=0p pd=0u as=0p ps=0u w=2e+06u l=4e+06u
X159 DGND DGND DGND DGND sky130_fd_pr__nfet_g5v0d10v5 ad=0p pd=0u as=0p ps=0u w=8e+06u l=1.5e+06u
X160 DGND trim[2].t0 a_34648_11527# DGND sky130_fd_pr__nfet_g5v0d10v5 ad=0p pd=0u as=5.8e+11p ps=5.16e+06u w=1e+06u l=500000u
X161 a_32057_n13616.t7 a_34666_7130.t3 Vfold_bot_m.t60 AVDD.t344 sky130_fd_pr__pfet_g5v0d10v5 ad=0p pd=0u as=0p ps=0u w=4e+06u l=1e+06u
X162 a_1657_n21342.t143 a_1560_n22142.t21 AVDD.t338 AVDD.t168 sky130_fd_pr__pfet_g5v0d10v5 ad=0p pd=0u as=0p ps=0u w=2e+06u l=4e+06u
X163 a_32059_n3351.t15 bias_n.t14 a_32059_n4497.t12 DGND sky130_fd_pr__nfet_g5v0d10v5 ad=0p pd=0u as=0p ps=0u w=2e+06u l=4e+06u
X164 DGND bias_var_n.t11 a_2467_n30310.t23 DGND sky130_fd_pr__nfet_g5v0d10v5 ad=0p pd=0u as=0p ps=0u w=2e+06u l=4e+06u
X165 DGND en.t0 a_32299_n29829# DGND sky130_fd_pr__nfet_g5v0d10v5 ad=0p pd=0u as=5.8e+11p ps=5.16e+06u w=1e+06u l=500000u
X166 DGND bias_n.t15 a_12859_n4209# DGND sky130_fd_pr__nfet_g5v0d10v5 ad=0p pd=0u as=1.16e+12p ps=9.16e+06u w=2e+06u l=4e+06u
X167 DGND bias_n.t16 a_12859_n2697# DGND sky130_fd_pr__nfet_g5v0d10v5 ad=0p pd=0u as=2.32e+12p ps=1.832e+07u w=2e+06u l=4e+06u
X168 a_12857_n15942.t3 a_1560_n22142.t22 AVDD.t840 AVDD.t93 sky130_fd_pr__pfet_g5v0d10v5 ad=0p pd=0u as=0p ps=0u w=2e+06u l=4e+06u
X169 Vop.t65 casc_p.t97 a_2458_6128.t116 AVDD.t64 sky130_fd_pr__pfet_g5v0d10v5 ad=0p pd=0u as=0p ps=0u w=2e+06u l=1e+06u
X170 AVDD.t667 AVDD.t665 AVDD.t666 AVDD.t374 sky130_fd_pr__pfet_g5v0d10v5 ad=0p pd=0u as=0p ps=0u w=2e+06u l=1e+06u
X171 a_2458_6128.t66 bias_p.t27 AVDD.t50 AVDD.t12 sky130_fd_pr__pfet_g5v0d10v5 ad=0p pd=0u as=0p ps=0u w=2e+06u l=4e+06u
X172 a_1659_n4497.t84 casc_n.t55 Vxm.t88 DGND sky130_fd_pr__nfet_g5v0d10v5 ad=0p pd=0u as=0p ps=0u w=2e+06u l=1e+06u
X173 DGND level_shifter_up_0.x_hv.t2 a_32059_n3351.t0 DGND sky130_fd_pr__nfet_g5v0d10v5 ad=0p pd=0u as=0p ps=0u w=2e+06u l=500000u
X174 a_1659_n4497.t83 casc_n.t56 Vxm.t89 DGND sky130_fd_pr__nfet_g5v0d10v5 ad=0p pd=0u as=0p ps=0u w=2e+06u l=1e+06u
X175 a_23032_4566.t5 level_shifter_up_8.xb_hv.t3 a_2370_6628.t3 AVDD.t38 sky130_fd_pr__pfet_g5v0d10v5 ad=0p pd=0u as=0p ps=0u w=4e+06u l=500000u
X176 a_1657_n21342.t142 a_1560_n22142.t23 AVDD.t841 AVDD.t166 sky130_fd_pr__pfet_g5v0d10v5 ad=0p pd=0u as=0p ps=0u w=2e+06u l=4e+06u
X177 Vop.t64 casc_p.t98 a_2458_6128.t115 AVDD.t113 sky130_fd_pr__pfet_g5v0d10v5 ad=0p pd=0u as=0p ps=0u w=2e+06u l=1e+06u
X178 AVDD.t664 AVDD.t662 AVDD.t663 AVDD.t111 sky130_fd_pr__pfet_g5v0d10v5 ad=0p pd=0u as=0p ps=0u w=2e+06u l=4e+06u
X179 DGND bias_var_n.t12 a_2467_n30310.t24 DGND sky130_fd_pr__nfet_g5v0d10v5 ad=0p pd=0u as=0p ps=0u w=2e+06u l=4e+06u
X180 a_2458_6128.t188 Vinm.t7 Vxm.t45 DGND sky130_fd_pr__nfet_g5v0d10v5 ad=0p pd=0u as=0p ps=0u w=8e+06u l=1.5e+06u
X181 casc_n.t27 casc_n.t25 casc_n.t26 DGND sky130_fd_pr__nfet_g5v0d10v5 ad=0p pd=0u as=0p ps=0u w=2e+06u l=1e+06u
X182 AVDD.t1 level_shifter_up_3.x_hv.t3 level_shifter_up_3.xb_hv.t0 AVDD.t0 sky130_fd_pr__pfet_g5v0d10v5 ad=0p pd=0u as=0p ps=0u w=2e+06u l=500000u
X183 Vxp.t140 Vinm.t8 a_2467_n30310.t67 AVDD.t47 sky130_fd_pr__pfet_g5v0d10v5 ad=0p pd=0u as=0p ps=0u w=8e+06u l=1.5e+06u
X184 a_1657_n21342.t141 a_1560_n22142.t24 AVDD.t842 AVDD.t155 sky130_fd_pr__pfet_g5v0d10v5 ad=0p pd=0u as=0p ps=0u w=2e+06u l=4e+06u
X185 a_2458_6128.t55 a_12760_n20342.t17 AVDD.t233 AVDD.t113 sky130_fd_pr__pfet_g5v0d10v5 ad=0p pd=0u as=0p ps=0u w=2e+06u l=4e+06u
X186 DGND level_shifter_up_4.xb_hv.t3 bias_n.t1 DGND sky130_fd_pr__nfet_g5v0d10v5 ad=0p pd=0u as=0p ps=0u w=4e+06u l=500000u
X187 Vout.t0 a_35086_7130.t5 DVDD.t13 DVDD.t12 sky130_fd_pr__pfet_01v8 ad=0p pd=0u as=0p ps=0u w=2e+06u l=150000u
X188 a_2458_6128.t82 Vinm.t9 Vxm.t32 DGND sky130_fd_pr__nfet_g5v0d10v5 ad=0p pd=0u as=0p ps=0u w=8e+06u l=1.5e+06u
X189 a_32057_n15000.t31 level_shifter_up_0.xb_hv.t4 AVDD.t817 AVDD.t816 sky130_fd_pr__pfet_g5v0d10v5 ad=0p pd=0u as=0p ps=0u w=2e+06u l=500000u
X190 Vxp.t133 casc_p.t99 a_1657_n21342.t177 AVDD.t196 sky130_fd_pr__pfet_g5v0d10v5 ad=0p pd=0u as=0p ps=0u w=2e+06u l=1e+06u
X191 a_32057_n17742.t11 a_1560_n22142.t25 AVDD.t843 AVDD.t9 sky130_fd_pr__pfet_g5v0d10v5 ad=0p pd=0u as=0p ps=0u w=2e+06u l=4e+06u
X192 DGND bias_var_n.t13 Vfold_bot_m.t58 DGND sky130_fd_pr__nfet_g5v0d10v5 ad=0p pd=0u as=0p ps=0u w=2e+06u l=4e+06u
X193 AVDD.t819 level_shifter_up_0.xb_hv.t5 level_shifter_up_0.x_hv.t1 AVDD.t818 sky130_fd_pr__pfet_g5v0d10v5 ad=0p pd=0u as=0p ps=0u w=2e+06u l=500000u
X194 DGND DGND DGND DGND sky130_fd_pr__nfet_g5v0d10v5 ad=0p pd=0u as=0p ps=0u w=2e+06u l=1e+06u
X195 DGND DGND DGND DGND sky130_fd_pr__nfet_g5v0d10v5 ad=0p pd=0u as=0p ps=0u w=8e+06u l=1.5e+06u
X196 Vxp.t132 casc_p.t100 a_1657_n21342.t178 AVDD.t203 sky130_fd_pr__pfet_g5v0d10v5 ad=0p pd=0u as=0p ps=0u w=2e+06u l=1e+06u
X197 DGND a_31003_11527# level_shifter_up_6.xb_hv DGND sky130_fd_pr__nfet_g5v0d10v5 ad=0p pd=0u as=2.9e+11p ps=2.58e+06u w=1e+06u l=500000u
X198 a_2467_n30310.t105 casc_n.t57 Vop.t106 DGND sky130_fd_pr__nfet_g5v0d10v5 ad=0p pd=0u as=0p ps=0u w=2e+06u l=1e+06u
X199 a_1657_n21342.t140 a_1560_n22142.t26 AVDD.t844 AVDD.t157 sky130_fd_pr__pfet_g5v0d10v5 ad=0p pd=0u as=0p ps=0u w=2e+06u l=4e+06u
X200 Vfold_bot_m.t102 casc_n.t58 Vom.t90 DGND sky130_fd_pr__nfet_g5v0d10v5 ad=0p pd=0u as=0p ps=0u w=2e+06u l=1e+06u
X201 Vfold_bot_m.t101 casc_n.t59 Vom.t89 DGND sky130_fd_pr__nfet_g5v0d10v5 ad=0p pd=0u as=0p ps=0u w=2e+06u l=1e+06u
X202 a_2458_6128.t83 Vinm.t10 Vxm.t33 DGND sky130_fd_pr__nfet_g5v0d10v5 ad=0p pd=0u as=0p ps=0u w=8e+06u l=1.5e+06u
X203 a_1657_n21342.t139 a_1560_n22142.t27 AVDD.t845 AVDD.t194 sky130_fd_pr__pfet_g5v0d10v5 ad=0p pd=0u as=0p ps=0u w=2e+06u l=4e+06u
X204 Vop.t63 casc_p.t101 a_2458_6128.t114 AVDD.t125 sky130_fd_pr__pfet_g5v0d10v5 ad=0p pd=0u as=0p ps=0u w=2e+06u l=1e+06u
X205 a_2467_n30310.t104 casc_n.t60 Vop.t100 DGND sky130_fd_pr__nfet_g5v0d10v5 ad=0p pd=0u as=0p ps=0u w=2e+06u l=1e+06u
X206 a_2458_5328.t59 a_12760_n20342.t18 AVDD.t234 AVDD.t105 sky130_fd_pr__pfet_g5v0d10v5 ad=0p pd=0u as=0p ps=0u w=2e+06u l=4e+06u
X207 a_33659_n1551.t1 bias_n.t17 a_33659_n2697.t5 DGND sky130_fd_pr__nfet_g5v0d10v5 ad=0p pd=0u as=0p ps=0u w=2e+06u l=4e+06u
X208 Vom.t71 casc_p.t102 a_2458_5328.t146 AVDD.t15 sky130_fd_pr__pfet_g5v0d10v5 ad=0p pd=0u as=0p ps=0u w=2e+06u l=1e+06u
X209 Vop.t62 casc_p.t103 a_2458_6128.t131 AVDD.t5 sky130_fd_pr__pfet_g5v0d10v5 ad=0p pd=0u as=0p ps=0u w=2e+06u l=1e+06u
X210 a_2458_6128.t54 a_12760_n20342.t19 AVDD.t235 AVDD.t103 sky130_fd_pr__pfet_g5v0d10v5 ad=0p pd=0u as=0p ps=0u w=2e+06u l=4e+06u
X211 a_32057_n14142.t11 bias_p.t28 a_32057_n15000.t17 AVDD.t20 sky130_fd_pr__pfet_g5v0d10v5 ad=0p pd=0u as=0p ps=0u w=2e+06u l=4e+06u
X212 DGND bias_var_n.t14 Vfold_bot_m.t59 DGND sky130_fd_pr__nfet_g5v0d10v5 ad=0p pd=0u as=0p ps=0u w=2e+06u l=4e+06u
X213 a_2467_n29152.t4 a_2370_n29452.t9 Vfold_bot_m.t16 AVDD.t34 sky130_fd_pr__pfet_g5v0d10v5 ad=0p pd=0u as=0p ps=0u w=8e+06u l=1.5e+06u
X214 DGND a_12857_n19016.t8 a_32059_n897.t0 DGND sky130_fd_pr__nfet_g5v0d10v5 ad=0p pd=0u as=0p ps=0u w=2e+06u l=4e+06u
X215 a_1659_n4497.t82 casc_n.t61 Vxm.t90 DGND sky130_fd_pr__nfet_g5v0d10v5 ad=0p pd=0u as=0p ps=0u w=2e+06u l=1e+06u
X216 a_2458_5328.t12 bias_p.t29 AVDD.t51 AVDD.t15 sky130_fd_pr__pfet_g5v0d10v5 ad=0p pd=0u as=0p ps=0u w=2e+06u l=4e+06u
X217 a_1657_n21342.t138 a_1560_n22142.t28 AVDD.t846 AVDD.t196 sky130_fd_pr__pfet_g5v0d10v5 ad=0p pd=0u as=0p ps=0u w=2e+06u l=4e+06u
X218 Vxp.t131 casc_p.t104 a_1657_n21342.t179 AVDD.t163 sky130_fd_pr__pfet_g5v0d10v5 ad=0p pd=0u as=0p ps=0u w=2e+06u l=1e+06u
X219 a_29757_7018.t2 bias_stg2.t5 AVDD.t762 AVDD.t709 sky130_fd_pr__pfet_g5v0d10v5 ad=0p pd=0u as=0p ps=0u w=2e+06u l=4e+06u
X220 DGND Vom.t120 Vfold_bot_m.t52 DGND sky130_fd_pr__nfet_g5v0d10v5 ad=0p pd=0u as=0p ps=0u w=2e+06u l=4e+06u
X221 Vom.t70 casc_p.t105 a_2458_5328.t145 AVDD.t7 sky130_fd_pr__pfet_g5v0d10v5 ad=0p pd=0u as=0p ps=0u w=2e+06u l=1e+06u
X222 a_1657_n21342.t137 a_1560_n22142.t29 AVDD.t847 AVDD.t194 sky130_fd_pr__pfet_g5v0d10v5 ad=0p pd=0u as=0p ps=0u w=2e+06u l=4e+06u
X223 a_11160_n9542.t1 a_11160_n9542.t0 a_11257_n8742.t4 AVDD.t91 sky130_fd_pr__pfet_g5v0d10v5 ad=0p pd=0u as=0p ps=0u w=2e+06u l=1e+06u
X224 Vfold_bot_m.t100 casc_n.t62 Vom.t88 DGND sky130_fd_pr__nfet_g5v0d10v5 ad=0p pd=0u as=0p ps=0u w=2e+06u l=1e+06u
X225 AVDD.t661 AVDD.t659 AVDD.t660 AVDD.t43 sky130_fd_pr__pfet_g5v0d10v5 ad=0p pd=0u as=0p ps=0u w=2e+06u l=4e+06u
X226 Vop.t61 casc_p.t106 a_2458_6128.t130 AVDD.t72 sky130_fd_pr__pfet_g5v0d10v5 ad=0p pd=0u as=0p ps=0u w=2e+06u l=1e+06u
X227 a_32057_n14142.t10 bias_p.t30 a_32057_n15000.t16 AVDD.t48 sky130_fd_pr__pfet_g5v0d10v5 ad=0p pd=0u as=0p ps=0u w=2e+06u l=4e+06u
X228 AVDD.t658 AVDD.t656 AVDD.t657 AVDD.t370 sky130_fd_pr__pfet_g5v0d10v5 ad=0p pd=0u as=0p ps=0u w=2e+06u l=4e+06u
X229 a_23013_n25097.t3 level_shifter_up_1.xb_hv.t2 a_27936_n27260.t2 DGND sky130_fd_pr__nfet_g5v0d10v5 ad=0p pd=0u as=0p ps=0u w=4e+06u l=500000u
X230 casc_p.t60 casc_p.t58 casc_p.t59 AVDD.t93 sky130_fd_pr__pfet_g5v0d10v5 ad=0p pd=0u as=0p ps=0u w=2e+06u l=1e+06u
X231 Vop.t60 casc_p.t107 a_2458_6128.t129 AVDD.t74 sky130_fd_pr__pfet_g5v0d10v5 ad=0p pd=0u as=0p ps=0u w=2e+06u l=1e+06u
X232 Vxp.t141 Vinp.t4 Vfold_bot_m.t105 AVDD.t47 sky130_fd_pr__pfet_g5v0d10v5 ad=0p pd=0u as=0p ps=0u w=8e+06u l=1.5e+06u
X233 a_23013_n31913# a_23679_n25097# DGND sky130_fd_pr__res_high_po_2p85 l=3.192e+07u
X234 Vxp.t142 Vinp.t5 Vfold_bot_m.t106 AVDD.t25 sky130_fd_pr__pfet_g5v0d10v5 ad=0p pd=0u as=0p ps=0u w=8e+06u l=1.5e+06u
X235 a_1657_n21342.t136 a_1560_n22142.t30 AVDD.t848 AVDD.t161 sky130_fd_pr__pfet_g5v0d10v5 ad=0p pd=0u as=0p ps=0u w=2e+06u l=4e+06u
X236 DGND DGND DGND DGND sky130_fd_pr__nfet_g5v0d10v5 ad=0p pd=0u as=0p ps=0u w=2e+06u l=1e+06u
X237 DGND level_shifter_up_0.x_hv.t3 a_32059_n3351.t5 DGND sky130_fd_pr__nfet_g5v0d10v5 ad=0p pd=0u as=0p ps=0u w=2e+06u l=500000u
X238 Vfold_bot_m.t99 casc_n.t63 Vom.t87 DGND sky130_fd_pr__nfet_g5v0d10v5 ad=0p pd=0u as=0p ps=0u w=2e+06u l=1e+06u
X239 a_2458_6128.t192 a_2370_7428.t8 a_2458_6570.t12 DGND sky130_fd_pr__nfet_g5v0d10v5 ad=0p pd=0u as=0p ps=0u w=8e+06u l=1.5e+06u
X240 a_14459_n2697# casc_n.t64 a_1560_n22142.t8 DGND sky130_fd_pr__nfet_g5v0d10v5 ad=2.32e+12p pd=1.832e+07u as=0p ps=0u w=2e+06u l=1e+06u